Network_14R-050/scenario_16/case.raw
0,100.0,33,0,1,60.0
GRID OPTIMIZATION COMPETITION
INPUT DATA FILES ARE RAW ROP INL CON
50134,'Wolf Creek~1',345.0,1,1,1,1,1.05245066,4.258839,1.1,0.9,1.1,0.9
50135,'Jeffrey En~1',345.0,1,1,1,1,1.04943192,-0.767376,1.1,0.9,1.1,0.9
50136,'La Cygne',345.0,1,1,1,1,1.02220988,9.100257,1.1,0.9,1.1,0.9
50137,'Holcomb',345.0,1,1,1,1,1.02545655,14.270052,1.1,0.9,1.1,0.9
50138,'Riverton',345.0,1,1,1,1,1.03867161,25.351997,1.1,0.9,1.1,0.9
50139,'Nearman Cr~1',345.0,1,1,1,1,1.01687157,-1.817726,1.1,0.9,1.1,0.9
50140,'Elk River ~1',138.0,2,1,2138,1,1.02199996,0.50256,1.1,0.9,1.1,0.9
50141,'Fort Dodge',138.0,2,1,2138,1,1.02199996,6.550107,1.1,0.9,1.1,0.9
50142,'Smoky Hill~2',138.0,1,1,2138,1,1.00711274,-9.11905,1.1,0.9,1.1,0.9
50143,'Gray Count~1',138.0,1,1,2138,1,1.01940012,8.572669,1.1,0.9,1.1,0.9
50144,'Smoky Hill~1',138.0,1,1,2138,1,1.00678396,-9.093732,1.1,0.9,1.1,0.9
50145,'Central Pl~1',138.0,2,1,2138,1,1.01999998,16.931054,1.1,0.9,1.1,0.9
50146,'Gordon Eva~1',345.0,1,1,1,1,1.02581847,2.520047,1.1,0.9,1.1,0.9
50147,'Cloud Coun~1',138.0,2,1,2138,1,1.02199996,-8.349619,1.1,0.9,1.1,0.9
50148,'West Gardner',138.0,1,1,2138,1,0.98478013,-3.573893,1.1,0.9,1.1,0.9
50149,'Osawatomie',138.0,1,1,2138,1,0.99049926,0.794911,1.1,0.9,1.1,0.9
50150,'Hutchinson~1',345.0,1,1,1,1,1.02719164,-1.361288,1.1,0.9,1.1,0.9
50151,'Clifton',138.0,2,1,2138,1,1.02199996,-8.122327,1.1,0.9,1.1,0.9
50152,'Tecumseh E~1',138.0,2,1,2138,1,1.02199996,-5.371832,1.1,0.9,1.1,0.9
50153,'Great Bend~1',69.0,2,1,269,1,1.02199996,-4.537775,1.1,0.9,1.1,0.9
50154,'Quindaro',138.0,1,1,2138,1,1.00608718,-3.504393,1.1,0.9,1.1,0.9
50155,'Abilene En~1',138.0,2,1,2138,1,1.02199996,-5.997616,1.1,0.9,1.1,0.9
50156,'Goodman En~1',345.0,2,1,2,1,1.01898897,-3.783964,1.1,0.9,1.1,0.9
50157,'McPherson 2',138.0,2,1,2138,1,1.02199996,-1.191482,1.1,0.9,1.1,0.9
50158,'Garden City',345.0,1,1,1,1,1.02521408,13.461032,1.1,0.9,1.1,0.9
50159,'Neosho',138.0,2,1,2138,1,1.0232625,9.056775,1.1,0.9,1.1,0.9
50160,'Emporia En~1',345.0,2,1,2,1,1.04062819,4.184917,1.1,0.9,1.1,0.9
50161,'Kaw',138.0,1,1,138,1,0.99965167,-3.883914,1.1,0.9,1.1,0.9
50162,'Cimarron R~1',69.0,1,1,269,1,1.00657952,12.720235,1.1,0.9,1.1,0.9
50163,'Flat Ridge~2',69.0,2,1,269,1,1.02199996,0.96856,1.1,0.9,1.1,0.9
50164,'Flat Ridge~1',69.0,2,1,269,1,1.02199996,1.098486,1.1,0.9,1.1,0.9
50165,'Lawrence E~1',138.0,2,1,2138,1,1.02199996,-2.292265,1.1,0.9,1.1,0.9
50166,'Spearville',138.0,2,1,2138,1,1.02199996,3.967142,1.1,0.9,1.1,0.9
50167,'Murray Gill',345.0,1,1,1,1,1.02357805,3.243797,1.1,0.9,1.1,0.9
50168,'Wichita Pl~1',138.0,2,1,2138,1,1.02199996,2.569341,1.1,0.9,1.1,0.9
50169,'Coffeyville',69.0,2,1,269,1,1.02199996,7.120596,1.1,0.9,1.1,0.9
50170,'Gardner En~1',138.0,1,1,2138,1,0.97770882,-3.993929,1.1,0.9,1.1,0.9
50171,'El Dorado ~1',69.0,2,1,269,1,1.02199996,-3.347702,1.1,0.9,1.1,0.9
50172,'East 12th ~1',69.0,2,1,269,1,1.02199996,-2.154002,1.1,0.9,1.1,0.9
50173,'Chanute 3',69.0,1,1,269,1,1.01256585,3.832588,1.1,0.9,1.1,0.9
50175,'Augusta El~1',138.0,1,1,2138,1,1.0060972,-2.351858,1.1,0.9,1.1,0.9
50176,'Erie Energ~1',345.0,1,1,1,1,1.03834951,8.012151,1.1,0.9,1.1,0.9
50178,'Wellington 1',138.0,1,1,138,1,1.006881,-0.157572,1.1,0.9,1.1,0.9
50179,'Wellington 2',138.0,1,1,138,1,1.00839639,-0.302651,1.1,0.9,1.1,0.9
50181,'Coyote',345.0,1,1,1,1,1.02841699,-2.141445,1.1,0.9,1.1,0.9
50182,'Antelope V~1',345.0,1,1,1,1,1.02198887,-1.995715,1.1,0.9,1.1,0.9
50183,'Milton R Y~1',345.0,1,1,1,1,1.0393362,-3.672739,1.1,0.9,1.1,0.9
50185,'Stanton',138.0,1,1,2138,1,1.03703308,-4.77469,1.1,0.9,1.1,0.9
50186,'Tatanka Wi~1',345.0,2,1,2,1,1.03298354,-8.033957,1.1,0.9,1.1,0.9
50187,'Langdon Wi~1',345.0,2,1,2,1,1.03299999,-10.925868,1.1,0.9,1.1,0.9
50188,'Rugby Wind~1',138.0,1,1,138,1,1.01638532,-11.562594,1.1,0.9,1.1,0.9
50189,'FPL Energy~1',138.0,2,1,2138,1,1.02199996,-10.504706,1.1,0.9,1.1,0.9
50190,'Ashtabula ~1',138.0,1,1,2138,1,1.02240396,-10.03985,1.1,0.9,1.1,0.9
50191,'Prairie Wi~1',138.0,1,1,2138,1,1.00819218,-8.94423,1.1,0.9,1.1,0.9
50192,'Garrison',345.0,2,1,2,1,1.03149128,-5.481645,1.1,0.9,1.1,0.9
50193,'Baldwin Wi~1',345.0,2,1,2,1,1.04440999,-5.976214,1.1,0.9,1.1,0.9
50194,'Ashtabula ~2',138.0,2,1,2138,1,1.02199996,-10.482495,1.1,0.9,1.1,0.9
50195,'FPL Energy~2',69.0,1,1,269,1,1.00774193,-12.036451,1.1,0.9,1.1,0.9
50196,'FPL Energy~3',138.0,2,1,2138,1,1.03747785,-2.535593,1.1,0.9,1.1,0.9
50197,'Luverne Wi~1',138.0,2,1,2138,1,1.02199996,-9.618896,1.1,0.9,1.1,0.9
50200,'Langdon Wi~3',69.0,2,1,269,1,1.02199996,-9.455816,1.1,0.9,1.1,0.9
50201,'Langdon Wi~2',345.0,1,1,1,1,1.01999998,-11.152597,1.1,0.9,1.1,0.9
50202,'R M Heskett',138.0,1,1,2138,1,1.02876437,-7.335552,1.1,0.9,1.1,0.9
50203,'Bison I Wi~1',345.0,2,1,2,1,1.0445112,-4.253803,1.1,0.9,1.1,0.9
50205,'Jamestown',138.0,1,1,2138,1,1.01931608,-11.774209,1.1,0.9,1.1,0.9
50206,'Cooper Nuc~1',345.0,1,1,1,1,1.03334546,-8.407078,1.1,0.9,1.1,0.9
50207,'Gerald Gen~1',345.0,2,1,2,1,1.0381248,-1.919196,1.1,0.9,1.1,0.9
50208,'Nebraska C~1',345.0,2,1,2,1,1.02199996,-9.314051,1.1,0.9,1.1,0.9
50209,'Fort Calhoun',345.0,2,1,2,1,1.0227375,-13.726194,1.1,0.9,1.1,0.9
50210,'Cass County',345.0,1,1,1,1,1.0221523,-11.943582,1.1,0.9,1.1,0.9
50211,'Platte',138.0,1,1,2138,1,1.01313281,-19.343806,1.1,0.9,1.1,0.9
50212,'Elkhorn Ri~1',69.0,2,1,269,1,1.02199996,-17.583687,1.1,0.9,1.1,0.9
50213,'Beatrice',138.0,2,1,2138,1,1.02199996,-10.530783,1.1,0.9,1.1,0.9
50214,'Whelan Ene~1',345.0,1,1,1,1,1.03893113,-16.043197,1.1,0.9,1.1,0.9
50215,'North Omaha',138.0,2,1,2138,1,1.02199996,-18.348629,1.1,0.9,1.1,0.9
50216,'Rokeby',138.0,2,1,2138,1,1.02199996,-14.356776,1.1,0.9,1.1,0.9
50217,'Archer Dan~1',69.0,1,1,269,1,1.01405907,-21.295676,1.1,0.9,1.1,0.9
50218,'Jones Street',138.0,1,1,138,1,1.00939035,-18.618966,1.1,0.9,1.1,0.9
50219,'C W Burdick',138.0,2,1,2138,1,1.02199996,-18.601433,1.1,0.9,1.1,0.9
50220,'Terry Bund~1',138.0,2,1,2138,1,1.02199996,-15.631385,1.1,0.9,1.1,0.9
50221,'Flat Water~1',138.0,2,1,2138,1,1.02199996,-8.778036,1.1,0.9,1.1,0.9
50222,'Ainsworth ~1',345.0,2,1,2,1,1.06122434,-16.087501,1.1,0.9,1.1,0.9
50223,'Hallam',345.0,1,1,1,1,1.03902948,-11.228848,1.1,0.9,1.1,0.9
50224,'Hebron',69.0,2,1,269,1,1.02199996,-15.840453,1.1,0.9,1.1,0.9
50225,'Sarpy County',138.0,2,1,2138,1,1.02199996,-17.417933,1.1,0.9,1.1,0.9
50226,'Kingsley',69.0,2,1,269,1,1.03702176,-6.740256,1.1,0.9,1.1,0.9
50227,'Columbus',69.0,2,1,269,1,1.02118933,-21.395549,1.1,0.9,1.1,0.9
50228,'North Platte',69.0,2,1,269,1,1.02199996,-9.555983,1.1,0.9,1.1,0.9
50229,'Nebraska C~2',345.0,1,1,1,1,1.02295732,-10.353773,1.1,0.9,1.1,0.9
50230,'Johnson 2',345.0,2,1,2,1,1.03843403,-10.033233,1.1,0.9,1.1,0.9
50231,'Lon Wright',138.0,1,1,138,1,1.01063216,-20.090834,1.1,0.9,1.1,0.9
50232,'Don Henry',138.0,2,1,2138,1,1.02199996,-18.344908,1.1,0.9,1.1,0.9
50233,'North Denver',345.0,2,1,2,1,1.04054117,-15.7086,1.1,0.9,1.1,0.9
50234,'Wayne IC',69.0,2,1,269,1,1.00705755,-24.907839,1.1,0.9,1.1,0.9
50235,'Jeffrey',138.0,1,1,2138,1,1.0189364,-12.142672,1.1,0.9,1.1,0.9
50236,'Johnson 1',345.0,1,1,1,1,1.04464364,-12.175639,1.1,0.9,1.1,0.9
50237,'Falls City',345.0,1,1,1,1,1.04950082,-6.459574,1.1,0.9,1.1,0.9
50238,'Muskogee',345.0,2,1,2,1,1.02199996,20.923388,1.1,0.9,1.1,0.9
50239,'Sooner',345.0,2,1,2,1,1.02199996,12.212936,1.1,0.9,1.1,0.9
50240,'GREC',345.0,1,1,1,1,1.02210081,19.444381,1.1,0.9,1.1,0.9
50241,'Northeastern',345.0,2,1,2,1,1.02199996,18.236359,1.1,0.9,1.1,0.9
50242,'Hugo',230.0,1,1,1,1,1.01948071,50.172715,1.1,0.9,1.1,0.9
50243,'Redbud Pow~1',345.0,2,1,2,1,1.02199996,17.42482,1.1,0.9,1.1,0.9
50244,'Kiamichi E~1',345.0,2,1,2,1,1.02199996,38.216739,1.1,0.9,1.1,0.9
50245,'Green Coun~1',138.0,2,1,2138,1,1.02199996,17.235836,1.1,0.9,1.1,0.9
50246,'McClain En~1',138.0,2,1,2138,1,1.02199996,16.19536,1.1,0.9,1.1,0.9
50247,'Chouteau',345.0,1,1,1,1,1.02261484,18.992775,1.1,0.9,1.1,0.9
50248,'Oneta Ener~1',345.0,2,1,2,1,1.02199996,19.229863,1.1,0.9,1.1,0.9
50249,'AES Shady ~1',345.0,1,1,1,1,1.02899539,38.641611,1.1,0.9,1.1,0.9
50250,'Keenan II ~1',345.0,1,1,1,1,1.03229213,26.887453,1.1,0.9,1.1,0.9
50251,'Blue Canyo~2',345.0,1,1,1,1,1.01815546,28.446782,1.1,0.9,1.1,0.9
50252,'Red Hills ~1',138.0,2,1,2138,1,1.02148581,24.698504,1.1,0.9,1.1,0.9
50253,'Centennial~1',138.0,2,1,2138,1,1.02199996,24.083787,1.1,0.9,1.1,0.9
50254,'OU Spirit ~1',138.0,2,1,2138,1,1.02199996,25.677983,1.1,0.9,1.1,0.9
50256,'Blue Canyo~3',138.0,2,1,2138,1,1.01767457,24.993754,1.1,0.9,1.1,0.9
50257,'Elk City LLC',345.0,2,1,2,1,1.03161442,31.815708,1.1,0.9,1.1,0.9
50258,'Tulsa',230.0,2,1,2,1,1.02199996,14.70878,1.1,0.9,1.1,0.9
50259,'Sleeping B~1',138.0,2,1,2138,1,1.02199996,23.17732,1.1,0.9,1.1,0.9
50260,'Southwestern',138.0,2,1,2138,1,1.02199996,32.390441,1.1,0.9,1.1,0.9
50261,'Riverside ~1',230.0,2,1,2,1,1.02037656,16.236437,1.1,0.9,1.1,0.9
50262,'Comanche (~1',138.0,2,1,2138,1,1.02199996,27.594451,1.1,0.9,1.1,0.9
50263,'Blue Canyo~1',345.0,1,1,1,1,1.01800263,28.430312,1.1,0.9,1.1,0.9
50264,'Anadarko P~1',138.0,2,1,2138,1,1.02199996,29.804002,1.1,0.9,1.1,0.9
50265,'Spring Cre~1',138.0,2,1,2138,1,1.02199996,15.046599,1.1,0.9,1.1,0.9
50266,'Ponca City',345.0,1,1,1,1,1.01645207,8.287208,1.1,0.9,1.1,0.9
50267,'Oklahoma C~1',138.0,2,1,2138,1,0.99318892,13.793983,1.1,0.9,1.1,0.9
50268,'Internatio~2',138.0,1,1,138,1,1.00329411,48.817158,1.1,0.9,1.1,0.9
50269,'Enid',345.0,1,1,1,1,1.01059961,10.277048,1.1,0.9,1.1,0.9
50270,'Oklahoma W~1',345.0,1,1,1,1,1.03381872,24.857871,1.1,0.9,1.1,0.9
50271,'Broken Bow~1',345.0,1,1,1,1,1.01480889,46.700237,1.1,0.9,1.1,0.9
50272,'Mooreland',138.0,2,1,2138,1,1.02199996,28.868696,1.1,0.9,1.1,0.9
50273,'WFEC GenCo~1',138.0,2,1,2138,1,1.02199996,29.785123,1.1,0.9,1.1,0.9
50274,'Fort Gibson',69.0,2,1,269,1,1.02199996,17.382263,1.1,0.9,1.1,0.9
50275,'Salina',230.0,1,1,1,1,1.02540874,18.722225,1.1,0.9,1.1,0.9
50276,'Mustang',230.0,1,1,1,1,1.00589669,16.105084,1.1,0.9,1.1,0.9
50277,'Weatherfor~1',138.0,2,1,2138,1,1.00791907,21.664025,1.1,0.9,1.1,0.9
50278,'Tenkiller ~1',69.0,2,1,269,1,1.02199996,22.059136,1.1,0.9,1.1,0.9
50279,'Kaw Hydro',69.0,2,1,269,1,1.02199996,3.861577,1.1,0.9,1.1,0.9
50280,'Keystone Dam',138.0,2,1,2138,1,1.02059484,10.933175,1.1,0.9,1.1,0.9
50281,'Markham',138.0,2,1,2138,1,1.02199996,20.823561,1.1,0.9,1.1,0.9
50282,'Eufaula Dam',69.0,2,1,269,1,1.02199996,25.351649,1.1,0.9,1.1,0.9
50283,'Robert S K~1',138.0,2,1,2138,1,1.02199996,34.627222,1.1,0.9,1.1,0.9
50284,'Horseshoe ~1',345.0,1,1,1,1,1.01941121,17.876215,1.1,0.9,1.1,0.9
50285,'Muskogee M~1',138.0,1,1,138,1,1.01204312,19.725463,1.1,0.9,1.1,0.9
50286,'Cushing',138.0,1,1,2138,1,0.98880452,10.890684,1.1,0.9,1.1,0.9
50287,'Seminole (~1',345.0,2,1,2,1,1.02199996,28.816203,1.1,0.9,1.1,0.9
50288,'Boomer Lak~1',345.0,1,1,1,1,1.02143621,13.836525,1.1,0.9,1.1,0.9
50289,'Pensacola',138.0,1,1,138,1,1.01241791,18.493605,1.1,0.9,1.1,0.9
50290,'Webbers Fa~1',138.0,2,1,2138,1,1.0210216,21.572338,1.1,0.9,1.1,0.9
50291,'Big Stone',345.0,2,1,2,1,1.03999996,-8.767406,1.1,0.9,1.1,0.9
50292,'Buffalo Ri~2',138.0,1,1,2138,1,1.00935614,-16.101997,1.1,0.9,1.1,0.9
50293,'Angus Anson',138.0,2,1,2138,1,1.02199996,-17.69957,1.1,0.9,1.1,0.9
50294,'Oahe',345.0,2,1,2,1,1.04290581,-4.896782,1.1,0.9,1.1,0.9
50295,'Day County~1',345.0,1,1,1,1,1.03963029,-9.330741,1.1,0.9,1.1,0.9
50296,'Groton Gen~1',138.0,2,1,2138,1,1.02721858,-0.383639,1.1,0.9,1.1,0.9
50297,'Spirit Mound',69.0,2,1,269,1,1.02199996,-17.903186,1.1,0.9,1.1,0.9
50298,'Watertown ~1',69.0,2,1,269,1,1.02199996,-13.683243,1.1,0.9,1.1,0.9
50299,'Big Bend Dam',345.0,2,1,2,1,1.03458142,-11.276256,1.1,0.9,1.1,0.9
50300,'Wessington~1',345.0,2,1,2,1,1.04869354,-15.55921,1.1,0.9,1.1,0.9
50301,'Buffalo Ri~1',138.0,2,1,2138,1,1.02199996,-12.987638,1.1,0.9,1.1,0.9
50302,'Huron',69.0,2,1,269,1,1.02199996,-8.085935,1.1,0.9,1.1,0.9
50303,'South Dako~1',69.0,2,1,269,1,1.02854991,-4.045692,1.1,0.9,1.1,0.9
50304,'Fort Randall',345.0,2,1,2,1,1.05641818,-14.937193,1.1,0.9,1.1,0.9
50305,'Lange Gas ~1',138.0,2,1,2138,1,1.02199996,-15.804696,1.1,0.9,1.1,0.9
50306,'Aberdeen CT',69.0,2,1,269,1,1.02984405,-3.513298,1.1,0.9,1.1,0.9
50307,'Ben French',345.0,1,1,1,11,1.0,-5.23927,1.1,0.9,1.1,0.9
50308,'Rolling Th~1',69.0,2,1,269,1,1.02692997,-2.863924,1.1,0.9,1.1,0.9
50309,'Lake Preston',69.0,1,1,269,1,1.00908422,-15.700561,1.1,0.9,1.1,0.9
50310,'South Texa~1',345.0,2,1,2,1,1.02199996,65.500572,1.1,0.9,1.1,0.9
50311,'Comanche P~1',345.0,2,1,2,1,1.02199996,49.113288,1.1,0.9,1.1,0.9
50312,'Oak Grove ~1',345.0,2,1,2,1,1.02199996,68.368015,1.1,0.9,1.1,0.9
50313,'Limestone',345.0,2,1,2,1,1.02199996,62.448433,1.1,0.9,1.1,0.9
50314,'Martin Lake',345.0,2,1,2,1,1.02199996,64.28169,1.1,0.9,1.1,0.9
50315,'Cedar Bayou',345.0,1,1,1,1,1.02207029,66.441116,1.1,0.9,1.1,0.9
50316,'Pirkey',345.0,1,1,1,1,1.02453196,64.454665,1.1,0.9,1.1,0.9
50317,'Oklaunion',345.0,2,1,2,1,1.02199996,37.586517,1.1,0.9,1.1,0.9
50318,'Sandow No 5',345.0,1,1,1,1,1.02541912,66.142514,1.1,0.9,1.1,0.9
50319,'Coleto Creek',138.0,2,1,2138,1,1.02199996,75.391621,1.1,0.9,1.1,0.9
50320,'W A Parish',345.0,3,1,2,1,1.02199996,65.745325,1.1,0.9,1.1,0.9
50321,'Sabine Riv~1',230.0,1,1,1,1,1.01839352,69.750097,1.1,0.9,1.1,0.9
50322,'Big Brown',345.0,1,1,1,1,1.02204621,59.190501,1.1,0.9,1.1,0.9
50323,'Monticello',345.0,1,1,1,1,1.02193475,61.145793,1.1,0.9,1.1,0.9
50324,'Sandow No 4',345.0,1,1,1,1,1.02535093,66.121518,1.1,0.9,1.1,0.9
50325,'Tolk',345.0,1,1,1,1,1.0329591,49.851,1.1,0.9,1.1,0.9
50326,'J K Spruce',345.0,2,1,1,1,1.02199996,71.15827,1.1,0.9,1.1,0.9
50327,'Welsh',345.0,1,1,1,1,1.02204216,62.786753,1.1,0.9,1.1,0.9
50328,'Fayette Po~1',345.0,1,1,1,1,1.02208138,67.490971,1.1,0.9,1.1,0.9
50329,'Gibbons Cr~1',345.0,2,1,2,1,1.02199996,64.880431,1.1,0.9,1.1,0.9
50330,'Clear Lake~1',345.0,1,1,1,1,1.01821184,64.517304,1.1,0.9,1.1,0.9
50331,'O W Sommers',345.0,1,1,1,1,1.02205431,71.177162,1.1,0.9,1.1,0.9
50332,'Thomas C F~1',138.0,2,1,2138,1,1.02199996,68.105865,1.1,0.9,1.1,0.9
50333,'J T Deely',345.0,1,1,1,1,1.02208126,71.192435,1.1,0.9,1.1,0.9
50334,'San Miguel',345.0,2,1,2,1,1.02199996,68.783044,1.1,0.9,1.1,0.9
50335,'Handley',138.0,2,1,2138,1,1.02199996,41.253629,1.1,0.9,1.1,0.9
50336,'Lake Hubbard',345.0,1,1,1,1,1.00798881,42.086099,1.1,0.9,1.1,0.9
50337,'Harrington',345.0,1,1,1,1,1.02695644,40.803714,1.1,0.9,1.1,0.9
50338,'Ennis Powe~1',345.0,1,1,1,1,1.00244975,42.204381,1.1,0.9,1.1,0.9
50339,'Pattern Gu~1',345.0,2,1,2,1,1.03038275,66.054964,1.1,0.9,1.1,0.9
50340,'King Mount~1',345.0,1,1,1,1,1.02663577,50.975198,1.1,0.9,1.1,0.9
50341,'Lewis Creek',138.0,2,1,2138,1,1.02199996,60.965183,1.1,0.9,1.1,0.9
...
0 / END OF BUS DATA BEGIN LOAD DATA
50136,'1',1,1,1,30.0,6.0,0.0,0.0,0.0,0.0,1,1,0
50137,'F',1,1,1,120.0,30.77,0.0,0.0,0.0,0.0,1,1,0
50152,'F',1,1,2138,0.0,20.81,0.0,0.0,0.0,0.0,1,1,0
50171,'F',1,1,269,0.0,-13.28,0.0,0.0,0.0,0.0,1,1,0
50186,'F',1,1,2,0.0,21.63,0.0,0.0,0.0,0.0,1,1,0
50201,'F',1,1,1,200.0,300.0,0.0,0.0,0.0,0.0,1,1,0
50218,'F',1,1,138,0.0,20.31,0.0,0.0,0.0,0.0,1,1,0
50222,'F',1,1,2,100.0,75.0,0.0,0.0,0.0,0.0,1,1,0
50226,'F',1,1,269,0.0,-20.0,0.0,0.0,0.0,0.0,1,1,0
50234,'1',1,1,269,0.0,-4.05,0.0,0.0,0.0,0.0,1,1,0
50271,'1',1,1,1,100.0,70.0,0.0,0.0,0.0,0.0,1,1,0
50271,'F',1,1,1,0.0,21.45,0.0,0.0,0.0,0.0,1,1,0
50291,'F',1,1,2,50.0,150.0,0.0,0.0,0.0,0.0,1,1,0
50300,'F',1,1,2,100.0,21.63,0.0,0.0,0.0,0.0,1,1,0
50326,'1',1,1,1,150.0,33.0,0.0,0.0,0.0,0.0,1,1,0
50337,'1',1,1,1,120.0,40.0,0.0,0.0,0.0,0.0,1,1,0
50374,'1',1,1,1,250.0,100.0,0.0,0.0,0.0,0.0,1,1,0
50416,'F',1,1,1,125.0,91.96,0.0,0.0,0.0,0.0,1,1,0
50453,'F',1,1,1,80.0,20.89,0.0,0.0,0.0,0.0,1,1,0
50469,'1',1,1,1,25.0,15.0,0.0,0.0,0.0,0.0,1,1,0
50469,'F',1,1,1,0.0,10.43,0.0,0.0,0.0,0.0,1,1,0
50539,'1',1,1,2138,10.0,0.0,0.0,0.0,0.0,0.0,1,1,0
50550,'1',1,1,69,4.724,1.21,0.0,0.0,0.0,0.0,1,1,0
50552,'1',1,1,69,15.054,3.869,0.0,0.0,0.0,0.0,1,1,0
50554,'1',1,1,138,19.187,5.203,0.0,0.0,0.0,0.0,1,1,0
50556,'1',1,1,69,14.288,3.734,0.0,0.0,0.0,0.0,1,1,0
50558,'1',1,1,69,15.433,5.059,0.0,0.0,0.0,0.0,1,1,0
50559,'1',1,1,1,26.475,9.013,0.0,0.0,0.0,0.0,1,1,0
50561,'1',1,1,69,15.423,3.974,0.0,0.0,0.0,0.0,1,1,0
50564,'1',1,1,69,11.96,3.043,0.0,0.0,0.0,0.0,1,1,0
50565,'1',1,1,69,7.333,2.208,0.0,0.0,0.0,0.0,1,1,0
50567,'1',1,1,69,10.398,2.669,0.0,0.0,0.0,0.0,1,1,0
50576,'1',1,1,69,16.005,4.147,0.0,0.0,0.0,0.0,1,1,0
50578,'1',1,1,69,8.526,2.774,0.0,0.0,0.0,0.0,1,1,0
50579,'1',1,1,69,11.039,2.87,0.0,0.0,0.0,0.0,1,1,0
50579,'F',1,1,69,0.0,-6.15,0.0,0.0,0.0,0.0,1,1,0
50585,'1',1,1,69,11.107,2.909,0.0,0.0,0.0,0.0,1,1,0
50585,'F',1,1,69,0.0,-30.28,0.0,0.0,0.0,0.0,1,1,0
50586,'1',1,1,69,14.375,3.677,0.0,0.0,0.0,0.0,1,1,0
50586,'F',1,1,69,0.0,-10.06,0.0,0.0,0.0,0.0,1,1,0
50587,'1',1,1,138,5.209,1.373,0.0,0.0,0.0,0.0,1,1,0
50589,'1',1,1,69,4.995,1.306,0.0,0.0,0.0,0.0,1,1,0
50591,'1',1,1,69,5.16,1.354,0.0,0.0,0.0,0.0,1,1,0
50592,'1',1,1,138,6.053,1.565,0.0,0.0,0.0,0.0,1,1,0
50593,'1',1,1,69,6.606,1.69,0.0,0.0,0.0,0.0,1,1,0
50596,'1',1,1,69,11.756,3.869,0.0,0.0,0.0,0.0,1,1,0
50598,'1',1,1,69,9.923,2.957,0.0,0.0,0.0,0.0,1,1,0
50599,'1',1,1,69,12.29,3.571,0.0,0.0,0.0,0.0,1,1,0
50600,'1',1,1,69,3.795,0.925,0.0,0.0,0.0,0.0,1,1,0
50604,'1',1,1,69,15.142,3.869,0.0,0.0,0.0,0.0,1,1,0
50605,'1',1,1,69,7.576,1.958,0.0,0.0,0.0,0.0,1,1,0
50606,'1',1,1,69,9.225,2.381,0.0,0.0,0.0,0.0,1,1,0
50608,'F',1,1,1,80.0,20.66,0.0,0.0,0.0,0.0,1,1,0
50609,'1',1,1,69,7.023,1.834,0.0,0.0,0.0,0.0,1,1,0
50610,'1',1,1,138,5.898,1.526,0.0,0.0,0.0,0.0,1,1,0
50611,'1',1,1,69,10.049,2.573,0.0,0.0,0.0,0.0,1,1,0
50613,'1',1,1,69,11.242,2.909,0.0,0.0,0.0,0.0,1,1,0
50614,'1',1,1,138,17.712,5.242,0.0,0.0,0.0,0.0,1,1,0
50615,'1',1,1,69,5.626,1.478,0.0,0.0,0.0,0.0,1,1,0
50618,'1',1,1,69,4.016,1.027,0.0,0.0,0.0,0.0,1,1,0
50621,'1',1,1,69,7.644,2.15,0.0,0.0,0.0,0.0,1,1,0
50634,'1',1,1,69,3.38,0.878,0.0,0.0,0.0,0.0,1,1,0
50635,'1',1,1,69,3.269,0.84,0.0,0.0,0.0,0.0,1,1,0
50636,'1',1,1,69,12.678,3.264,0.0,0.0,0.0,0.0,1,1,0
50638,'1',1,1,69,12.959,3.706,0.0,0.0,0.0,0.0,1,1,0
50639,'1',1,1,69,15.685,5.251,0.0,0.0,0.0,0.0,1,1,0
50640,'1',1,1,69,13.929,3.581,0.0,0.0,0.0,0.0,1,1,0
50642,'1',1,1,69,7.401,1.92,0.0,0.0,0.0,0.0,1,1,0
50643,'1',1,1,69,4.831,1.258,0.0,0.0,0.0,0.0,1,1,0
50644,'1',1,1,69,31.629,9.874,0.0,0.0,0.0,0.0,1,1,0
50645,'1',1,1,138,17.14,4.531,0.0,0.0,0.0,0.0,1,1,0
50647,'1',1,1,69,7.547,1.939,0.0,0.0,0.0,0.0,1,1,0
50648,'1',1,1,138,5.849,1.536,0.0,0.0,0.0,0.0,1,1,0
50650,'1',1,1,138,7.459,1.93,0.0,0.0,0.0,0.0,1,1,0
50652,'1',1,1,69,5.384,1.392,0.0,0.0,0.0,0.0,1,1,0
50653,'1',1,1,69,8.585,2.275,0.0,0.0,0.0,0.0,1,1,0
50655,'1',1,1,69,5.548,1.421,0.0,0.0,0.0,0.0,1,1,0
50656,'1',1,1,69,8.371,2.189,0.0,0.0,0.0,0.0,1,1,0
50658,'1',1,1,69,3.046,0.806,0.0,0.0,0.0,0.0,1,1,0
50659,'1',1,1,138,9.826,2.515,0.0,0.0,0.0,0.0,1,1,0
50660,'1',1,1,69,8.652,2.726,0.0,0.0,0.0,0.0,1,1,0
50663,'1',1,1,69,9.137,2.41,0.0,0.0,0.0,0.0,1,1,0
50664,'1',1,1,69,5.296,1.373,0.0,0.0,0.0,0.0,1,1,0
50665,'1',1,1,69,8.585,2.602,0.0,0.0,0.0,0.0,1,1,0
50666,'1',1,1,69,9.37,2.438,0.0,0.0,0.0,0.0,1,1,0
50668,'1',1,1,69,7.265,1.853,0.0,0.0,0.0,0.0,1,1,0
50669,'1',1,1,69,4.084,1.075,0.0,0.0,0.0,0.0,1,1,0
50670,'1',1,1,69,7.091,0.83,0.0,0.0,0.0,0.0,1,1,0
50671,'1',1,1,69,4.166,1.066,0.0,0.0,0.0,0.0,1,1,0
50671,'F',1,1,69,0.0,-10.11,0.0,0.0,0.0,0.0,1,1,0
50672,'1',1,1,69,8.129,0.5,0.0,0.0,0.0,0.0,1,1,0
50672,'F',1,1,69,0.0,-5.275,0.0,0.0,0.0,0.0,1,1,0
50673,'F',1,1,1,400.0,0.0,0.0,0.0,0.0,0.0,1,1,0
50675,'1',1,1,69,4.161,1.085,0.0,0.0,0.0,0.0,1,1,0
50676,'1',1,1,138,14.502,3.696,0.0,0.0,0.0,0.0,1,1,0
50677,'1',1,1,69,14.123,4.493,0.0,0.0,0.0,0.0,1,1,0
50678,'1',1,1,138,23.253,5.894,0.0,0.0,0.0,0.0,1,1,0
50678,'F',1,1,138,0.0,-15.415,0.0,0.0,0.0,0.0,1,1,0
50679,'1',1,1,138,5.548,1.416,0.0,0.0,0.0,0.0,1,1,0
50683,'1',1,1,138,2.003,0.528,0.0,0.0,0.0,0.0,1,1,0
50684,'1',1,1,69,7.973,2.045,0.0,0.0,0.0,0.0,1,1,0
50688,'1',1,1,69,1.795,0.475,0.0,0.0,0.0,0.0,1,1,0
50689,'1',1,1,138,12.577,3.711,0.0,0.0,0.0,0.0,1,1,0
50690,'1',1,1,138,16.335,4.224,0.0,0.0,0.0,0.0,1,1,0
50691,'1',1,1,69,13.308,-3.466,0.0,0.0,0.0,0.0,1,1,0
50691,'F',1,1,69,0.0,-1.66,0.0,0.0,0.0,0.0,1,1,0
50694,'1',1,1,138,9.671,2.515,0.0,0.0,0.0,0.0,1,1,0
50697,'1',1,1,69,9.205,2.39,0.0,0.0,0.0,0.0,1,1,0
50701,'1',1,1,138,16.228,4.282,0.0,0.0,0.0,0.0,1,1,0
50701,'F',1,1,138,0.0,-6.6,0.0,0.0,0.0,0.0,1,1,0
50704,'1',1,1,69,8.274,2.746,0.0,0.0,0.0,0.0,1,1,0
50705,'1',1,1,69,6.955,1.834,0.0,0.0,0.0,0.0,1,1,0
50706,'1',1,1,69,4.152,1.104,0.0,0.0,0.0,0.0,1,1,0
50708,'1',1,1,69,6.528,1.978,0.0,0.0,0.0,0.0,1,1,0
50710,'1',1,1,69,4.404,-2.0,0.0,0.0,0.0,0.0,1,1,0
50710,'F',1,1,69,0.0,-3.585,0.0,0.0,0.0,0.0,1,1,0
50711,'F',1,1,138,0.0,-12.005,0.0,0.0,0.0,0.0,1,1,0
50712,'1',1,1,69,4.549,1.176,0.0,0.0,0.0,0.0,1,1,0
50712,'F',1,1,69,0.0,-7.54,0.0,0.0,0.0,0.0,1,1,0
50713,'1',1,1,69,2.202,0.576,0.0,0.0,0.0,0.0,1,1,0
50713,'F',1,1,69,0.0,-1.85,0.0,0.0,0.0,0.0,1,1,0
50714,'F',1,1,1,100.0,-25.0,0.0,0.0,0.0,0.0,1,1,0
50715,'1',1,1,69,7.115,1.5,0.0,0.0,0.0,0.0,1,1,0
50716,'1',1,1,138,5.063,1.334,0.0,0.0,0.0,0.0,1,1,0
50717,'1',1,1,138,12.452,-3.94,0.0,0.0,0.0,0.0,1,1,0
50719,'1',1,1,69,4.51,1.181,0.0,0.0,0.0,0.0,1,1,0
50720,'1',1,1,69,5.374,1.373,0.0,0.0,0.0,0.0,1,1,0
50721,'1',1,1,69,4.869,1.296,0.0,0.0,0.0,0.0,1,1,0
50723,'1',1,1,69,15.801,4.646,0.0,0.0,0.0,0.0,1,1,0
50724,'1',1,1,69,11.349,2.899,0.0,0.0,0.0,0.0,1,1,0
50725,'1',1,1,69,8.196,2.093,0.0,0.0,0.0,0.0,1,1,0
50726,'1',1,1,138,10.185,2.602,0.0,0.0,0.0,0.0,1,1,0
50727,'1',1,1,69,6.402,1.69,0.0,0.0,0.0,0.0,1,1,0
50729,'1',1,1,138,13.066,3.35,0.0,0.0,0.0,0.0,1,1,0
50731,'1',1,1,1,26.054,7.897,0.0,0.0,0.0,0.0,1,1,0
50732,'1',1,1,69,30.151,8.26,0.0,0.0,0.0,0.0,1,1,0
50733,'1',1,1,138,10.069,2.592,0.0,0.0,0.0,0.0,1,1,0
50733,'F',1,1,138,0.0,-17.39,0.0,0.0,0.0,0.0,1,1,0
50734,'1',1,1,138,9.351,2.41,0.0,0.0,0.0,0.0,1,1,0
50736,'1',1,1,69,6.14,1.632,0.0,0.0,0.0,0.0,1,1,0
50738,'1',1,1,69,6.538,2.054,0.0,0.0,0.0,0.0,1,1,0
50739,'1',1,1,69,7.149,1.882,0.0,0.0,0.0,0.0,1,1,0
50740,'1',1,1,69,12.397,4.051,0.0,0.0,0.0,0.0,1,1,0
50741,'1',1,1,138,6.606,1.69,0.0,0.0,0.0,0.0,1,1,0
50742,'1',1,1,138,11.999,3.053,0.0,0.0,0.0,0.0,1,1,0
50743,'1',1,1,69,6.606,1.747,0.0,0.0,0.0,0.0,1,1,0
50744,'1',1,1,69,5.956,1.526,0.0,0.0,0.0,0.0,1,1,0
50745,'1',1,1,69,4.54,1.181,0.0,0.0,0.0,0.0,1,1,0
50746,'1',1,1,69,5.956,1.526,0.0,0.0,0.0,0.0,1,1,0
50748,'1',1,1,69,6.586,1.69,0.0,0.0,0.0,0.0,1,1,0
50749,'1',1,1,69,3.773,0.998,0.0,0.0,0.0,0.0,1,1,0
50750,'1',1,1,69,4.394,1.152,0.0,0.0,0.0,0.0,1,1,0
50753,'1',1,1,69,4.559,1.19,0.0,0.0,0.0,0.0,1,1,0
50754,'1',1,1,69,3.812,0.979,0.0,0.0,0.0,0.0,1,1,0
50757,'1',1,1,69,5.878,1.507,0.0,0.0,0.0,0.0,1,1,0
50758,'1',1,1,69,3.395,0.902,0.0,0.0,0.0,0.0,1,1,0
50759,'1',1,1,69,5.228,1.354,0.0,0.0,0.0,0.0,1,1,0
50760,'1',1,1,69,5.713,1.478,0.0,0.0,0.0,0.0,1,1,0
50762,'1',1,1,69,3.919,1.037,0.0,0.0,0.0,0.0,1,1,0
50763,'1',1,1,69,7.76,2.045,0.0,0.0,0.0,0.0,1,1,0
50764,'1',1,1,69,5.122,1.344,0.0,0.0,0.0,0.0,1,1,0
50765,'1',1,1,69,6.848,1.814,0.0,0.0,0.0,0.0,1,1,0
50766,'1',1,1,69,6.819,1.757,0.0,0.0,0.0,0.0,1,1,0
50767,'1',1,1,69,5.364,1.411,0.0,0.0,0.0,0.0,1,1,0
50768,'1',1,1,69,4.966,1.277,0.0,0.0,0.0,0.0,1,1,0
50771,'1',1,1,69,10.078,2.65,0.0,0.0,0.0,0.0,1,1,0
50775,'1',1,1,69,10.495,2.736,0.0,0.0,0.0,0.0,1,1,0
50776,'1',1,1,69,8.875,2.275,0.0,0.0,0.0,0.0,1,1,0
50777,'1',1,1,69,4.064,1.315,0.0,0.0,0.0,0.0,1,1,0
50778,'1',1,1,69,7.091,1.853,0.0,0.0,0.0,0.0,1,1,0
50779,'1',1,1,69,8.264,2.582,0.0,0.0,0.0,0.0,1,1,0
50781,'1',1,1,69,3.54,0.912,0.0,0.0,0.0,0.0,1,1,0
50783,'1',1,1,69,12.368,4.128,0.0,0.0,0.0,0.0,1,1,0
50784,'1',1,1,69,4.433,1.152,0.0,0.0,0.0,0.0,1,1,0
50789,'1',1,1,69,4.355,1.142,0.0,0.0,0.0,0.0,1,1,0
50790,'1',1,1,69,3.036,0.806,0.0,0.0,0.0,0.0,1,1,0
50791,'1',1,1,69,5.529,1.469,0.0,0.0,0.0,0.0,1,1,0
50793,'1',1,1,69,6.635,1.738,0.0,0.0,0.0,0.0,1,1,0
50794,'1',1,1,69,5.936,1.555,0.0,0.0,0.0,0.0,1,1,0
50796,'1',1,1,69,17.712,4.656,0.0,0.0,0.0,0.0,1,1,0
50799,'1',1,1,69,21.66,6.208,0.0,0.0,0.0,0.0,1,1,0
50800,'1',1,1,69,8.808,2.822,0.0,0.0,0.0,0.0,1,1,0
50801,'1',1,1,69,2.018,0.528,0.0,0.0,0.0,0.0,1,1,0
50802,'1',1,1,69,1.804,0.47,0.0,0.0,0.0,0.0,1,1,0
50804,'1',1,1,69,14.017,3.638,0.0,0.0,0.0,0.0,1,1,0
50805,'1',1,1,69,8.09,2.093,0.0,0.0,0.0,0.0,1,1,0
50809,'1',1,1,138,5.81,1.507,0.0,0.0,0.0,0.0,1,1,0
50810,'1',1,1,69,6.46,1.709,0.0,0.0,0.0,0.0,1,1,0
50812,'1',1,1,69,10.389,2.688,0.0,0.0,0.0,0.0,1,1,0
50813,'1',1,1,69,5.325,1.411,0.0,0.0,0.0,0.0,1,1,0
50814,'1',1,1,69,5.025,1.325,0.0,0.0,0.0,0.0,1,1,0
50815,'1',1,1,69,7.304,1.862,0.0,0.0,0.0,0.0,1,1,0
50816,'1',1,1,69,4.559,1.181,0.0,0.0,0.0,0.0,1,1,0
50817,'1',1,1,69,4.724,1.238,0.0,0.0,0.0,0.0,1,1,0
50818,'1',1,1,69,4.559,1.2,0.0,0.0,0.0,0.0,1,1,0
50819,'1',1,1,69,4.452,1.171,0.0,0.0,0.0,0.0,1,1,0
50821,'1',1,1,69,4.51,1.152,0.0,0.0,0.0,0.0,1,1,0
50822,'1',1,1,69,4.016,1.066,0.0,0.0,0.0,0.0,1,1,0
50824,'1',1,1,69,3.783,0.979,0.0,0.0,0.0,0.0,1,1,0
50825,'1',1,1,69,4.123,1.085,0.0,0.0,0.0,0.0,1,1,0
...
0 / END OF LOAD DATA BEGIN FIXED SHUNT DATA
0 / END OF FIXED SHUNT DATA BEGIN GENERATOR DATA
50140,'1',34.0,-8.433,66.1,-66.1,1.022,0,100.0,0.0,1.0,0.0,0.0,1.0,1,100.0,34.0,0.0,1,1.0,0,1.0,0,1.0,0,1.0,1,1.0
50141,'1',149.0,-9.705,92.3,-49.7,1.022,0,100.0,0.0,1.0,0.0,0.0,1.0,1,100.0,149.0,30.0,1,1.0,0,1.0,0,1.0,0,1.0,0,1.0
50145,'1',78.0,-24.516,57.333,-43.7,1.02,0,100.0,0.0,1.0,0.0,0.0,1.0,1,100.0,78.0,0.0,1,1.0,0,1.0,0,1.0,0,1.0,1,1.0
50147,'1',96.0,-7.856,42.3,-42.3,1.022,0,100.0,0.0,1.0,0.0,0.0,1.0,1,100.0,96.0,0.0,1,1.0,0,1.0,0,1.0,0,1.0,1,1.0
50147,'2',44.0,-7.856,46.3,-46.3,1.022,0,100.0,0.0,1.0,0.0,0.0,1.0,1,100.0,44.0,0.0,1,1.0,0,1.0,0,1.0,0,1.0,1,1.0
50151,'1',85.0,-7.177,41.2,-28.3,1.022,0,100.0,0.0,1.0,0.0,0.0,1.0,1,100.0,85.0,10.0,1,1.0,0,1.0,0,1.0,0,1.0,0,1.0
50152,'3',12.04,63.935,66.884,-9.7,1.022,0,100.0,0.0,1.0,0.0,0.0,1.0,1,100.0,29.0,12.04,1,1.0,0,1.0,0,1.0,0,1.0,0,1.0
50152,'4',12.04,63.935,66.884,-9.7,1.022,0,100.0,0.0,1.0,0.0,0.0,1.0,1,100.0,29.0,12.04,1,1.0,0,1.0,0,1.0,0,1.0,0,1.0
50153,'1',81.6,7.913,50.6,-27.2,1.022,0,100.0,0.0,1.0,0.0,0.0,1.0,1,100.0,81.6,23.0,1,1.0,0,1.0,0,1.0,0,1.0,0,1.0
50155,'1',77.0,41.31,43.6,-25.7,1.022,0,100.0,0.0,1.0,0.0,0.0,1.0,1,100.0,77.0,38.5,1,1.0,0,1.0,0,1.0,0,1.0,0,1.0
50156,'1',8.4,6.3,6.3,-2.8,1.022,0,100.0,0.0,1.0,0.0,0.0,1.0,1,100.0,8.4,4.2,1,1.0,0,1.0,0,1.0,0,1.0,0,1.0
50156,'3',8.4,6.3,6.3,-2.8,1.022,0,100.0,0.0,1.0,0.0,0.0,1.0,1,100.0,8.4,4.2,1,1.0,0,1.0,0,1.0,0,1.0,0,1.0
50156,'5',8.4,6.3,6.3,-2.8,1.022,0,100.0,0.0,1.0,0.0,0.0,1.0,1,100.0,8.4,4.2,1,1.0,0,1.0,0,1.0,0,1.0,0,1.0
50157,'1',71.2,3.698,34.5,-23.7,1.022,0,100.0,0.0,1.0,0.0,0.0,1.0,1,100.0,71.2,22.0,1,1.0,0,1.0,0,1.0,0,1.0,0,1.0
50157,'2',71.2,3.698,34.5,-23.7,1.022,0,100.0,0.0,1.0,0.0,0.0,1.0,1,100.0,71.2,22.0,1,1.0,0,1.0,0,1.0,0,1.0,0,1.0
50157,'3',72.4,3.698,35.1,-24.1,1.022,0,100.0,0.0,1.0,0.0,0.0,1.0,1,100.0,72.4,22.0,1,1.0,0,1.0,0,1.0,0,1.0,0,1.0
50159,'1',69.0,-23.0,39.7,-23.0,1.022,0,100.0,0.0,1.0,0.0,0.0,1.0,1,100.0,69.0,19.66,1,1.0,0,1.0,0,1.0,0,1.0,0,1.0
50160,'1',54.0,-18.0,33.5,-18.0,1.022,0,100.0,0.0,1.0,0.0,0.0,1.0,1,100.0,54.0,13.0,1,1.0,0,1.0,0,1.0,0,1.0,0,1.0
50160,'2',54.0,-18.0,33.5,-18.0,1.022,0,100.0,0.0,1.0,0.0,0.0,1.0,1,100.0,54.0,13.0,1,1.0,0,1.0,0,1.0,0,1.0,0,1.0
50160,'3',54.0,-18.0,33.5,-18.0,1.022,0,100.0,0.0,1.0,0.0,0.0,1.0,1,100.0,54.0,13.0,1,1.0,0,1.0,0,1.0,0,1.0,0,1.0
50160,'4',54.0,-18.0,33.5,-18.0,1.022,0,100.0,0.0,1.0,0.0,0.0,1.0,1,100.0,54.0,13.0,1,1.0,0,1.0,0,1.0,0,1.0,0,1.0
50160,'5',110.0,-57.1,106.2,-57.1,1.022,0,100.0,0.0,1.0,0.0,0.0,1.0,1,100.0,171.4,110.0,1,1.0,0,1.0,0,1.0,0,1.0,0,1.0
50160,'6',110.0,-57.1,106.2,-57.1,1.022,0,100.0,0.0,1.0,0.0,0.0,1.0,1,100.0,171.4,110.0,1,1.0,0,1.0,0,1.0,0,1.0,0,1.0
50160,'7',110.0,-57.1,106.2,-57.1,1.022,0,100.0,0.0,1.0,0.0,0.0,1.0,1,100.0,171.4,110.0,1,1.0,0,1.0,0,1.0,0,1.0,0,1.0
50163,'1',44.0,17.328,19.8,-19.8,1.022,0,100.0,0.0,1.0,0.0,0.0,1.0,1,100.0,44.0,0.0,1,1.0,0,1.0,0,1.0,0,1.0,1,1.0
50164,'1',50.0,-9.725,19.8,-19.8,1.022,0,100.0,0.0,1.0,0.0,0.0,1.0,1,100.0,50.0,0.0,1,1.0,0,1.0,0,1.0,0,1.0,1,1.0
50165,'3',403.0,113.026,195.2,-134.3,1.022,0,100.0,0.0,1.0,0.0,0.0,1.0,1,100.0,403.0,135.0,1,1.0,0,1.0,0,1.0,0,1.0,0,1.0
50166,'1',48.0,-3.268,19.0,-19.0,1.022,0,100.0,0.0,1.0,0.0,0.0,1.0,1,100.0,48.0,0.0,1,1.0,0,1.0,0,1.0,0,1.0,1,1.0
50166,'2',23.0,-3.268,44.3,-44.3,1.022,0,100.0,0.0,1.0,0.0,0.0,1.0,1,100.0,23.0,0.0,1,1.0,0,1.0,0,1.0,0,1.0,1,1.0
50168,'1',43.7,-1.798,32.8,-14.6,1.022,0,100.0,0.0,1.0,0.0,0.0,1.0,1,100.0,43.7,13.0,1,1.0,0,1.0,0,1.0,0,1.0,0,1.0
50169,'1',40.0,15.893,22.71,-13.3,1.022,0,100.0,0.0,1.0,0.0,0.0,1.0,1,100.0,40.0,9.0,1,1.0,0,1.0,0,1.0,0,1.0,0,1.0
50171,'1',38.9,-27.172,37.0,-30.0,1.022,0,100.0,0.0,1.0,0.0,0.0,1.0,1,100.0,38.9,22.0,1,1.0,0,1.0,0,1.0,0,1.0,0,1.0
50172,'1',26.5,40.469,76.621,-8.8,1.022,0,100.0,0.0,1.0,0.0,0.0,1.0,1,100.0,26.5,5.0,1,1.0,0,1.0,0,1.0,0,1.0,0,1.0
50186,'1',113.0,-60.0,87.2,-60.0,1.022,0,100.0,0.0,1.0,0.0,0.0,1.0,1,100.0,113.0,0.0,1,1.0,0,1.0,0,1.0,0,1.0,1,1.0
50187,'1',67.0,11.609,70.1,-70.1,1.033,0,100.0,0.0,1.0,0.0,0.0,1.0,1,100.0,67.0,0.0,1,1.0,0,1.0,0,1.0,0,1.0,1,1.0
50189,'1',34.0,9.877,650.0,-65.5,1.022,0,100.0,0.0,1.0,0.0,0.0,1.0,1,100.0,34.0,0.0,1,1.0,0,1.0,0,1.0,0,1.0,1,1.0
50192,'1',32.0,-58.969,37.8,-58.969,1.022,0,100.0,0.0,1.0,0.0,0.0,1.0,1,100.0,32.0,0.0,1,1.0,0,1.0,0,1.0,0,1.0,0,1.0
50192,'2',32.0,-58.969,37.8,-58.969,1.022,0,100.0,0.0,1.0,0.0,0.0,1.0,1,100.0,32.0,0.0,1,1.0,0,1.0,0,1.0,0,1.0,0,1.0
50192,'3',32.0,-63.269,42.1,-63.269,1.022,0,100.0,0.0,1.0,0.0,0.0,1.0,1,100.0,32.0,0.0,1,1.0,0,1.0,0,1.0,0,1.0,0,1.0
50192,'4',32.0,-63.269,42.1,-63.269,1.022,0,100.0,0.0,1.0,0.0,0.0,1.0,1,100.0,32.0,0.0,1,1.0,0,1.0,0,1.0,0,1.0,0,1.0
50192,'5',32.0,-63.269,42.1,-63.269,1.022,0,100.0,0.0,1.0,0.0,0.0,1.0,1,100.0,32.0,0.0,1,1.0,0,1.0,0,1.0,0,1.0,0,1.0
50193,'1',43.0,-45.2,45.2,-45.2,1.022,0,100.0,0.0,1.0,0.0,0.0,1.0,1,100.0,43.0,0.0,1,1.0,0,1.0,0,1.0,0,1.0,1,1.0
50194,'1',62.4,1.034,26.554,-24.7,1.022,0,100.0,0.0,1.0,0.0,0.0,1.0,1,100.0,62.4,0.0,1,1.0,0,1.0,0,1.0,0,1.0,1,1.0
50196,'1',48.0,-19.0,19.0,-19.0,1.022,0,100.0,0.0,1.0,0.0,0.0,1.0,1,100.0,48.0,0.0,1,1.0,0,1.0,0,1.0,0,1.0,1,1.0
50196,'2',50.6,-20.0,20.0,-20.0,1.022,0,100.0,0.0,1.0,0.0,0.0,1.0,1,100.0,50.6,0.0,1,1.0,0,1.0,0,1.0,0,1.0,1,1.0
50197,'1',64.0,-15.618,40.68,-19.6,1.022,0,100.0,0.0,1.0,0.0,0.0,1.0,1,100.0,64.0,0.0,1,1.0,0,1.0,0,1.0,0,1.0,1,1.0
50200,'1',40.5,-13.58,22.864,-16.0,1.022,0,100.0,0.0,1.0,0.0,0.0,1.0,1,100.0,40.5,0.0,1,1.0,0,1.0,0,1.0,0,1.0,1,1.0
50203,'1',36.8,-14.5,48.5,-14.5,1.022,0,100.0,0.0,1.0,0.0,0.0,1.0,1,100.0,36.8,0.0,1,1.0,0,1.0,0,1.0,0,1.0,1,1.0
50207,'1',681.3,-227.1,330.0,-227.1,1.022,0,100.0,0.0,1.0,0.0,0.0,1.0,1,100.0,681.3,334.0,1,1.0,0,1.0,0,1.0,0,1.0,0,1.0
50207,'2',681.3,-227.1,330.0,-227.1,1.022,0,100.0,0.0,1.0,0.0,0.0,1.0,1,100.0,681.3,334.0,1,1.0,0,1.0,0,1.0,0,1.0,0,1.0
50208,'1',738.0,-168.649,357.4,-246.0,1.022,0,100.0,0.0,1.0,0.0,0.0,1.0,1,100.0,738.0,320.0,1,1.0,0,1.0,0,1.0,0,1.0,0,1.0
50209,'1',502.0,-167.3,311.1,-167.3,1.022,0,100.0,0.0,1.0,0.0,0.0,1.0,1,100.0,502.0,474.0,1,1.0,0,1.0,0,1.0,0,1.0,0,1.0
50212,'1',81.0,-10.357,32.0,-32.0,1.022,0,100.0,0.0,1.0,0.0,0.0,1.0,1,100.0,81.0,0.0,1,1.0,0,1.0,0,1.0,0,1.0,1,1.0
50213,'1',93.9,4.372,58.2,-31.3,1.022,0,100.0,0.0,1.0,0.0,0.0,1.0,1,100.0,93.9,5.0,1,1.0,0,1.0,0,1.0,0,1.0,0,1.0
50213,'2',76.6,4.372,47.5,-25.5,1.022,0,100.0,0.0,1.0,0.0,0.0,1.0,1,100.0,76.6,5.0,1,1.0,0,1.0,0,1.0,0,1.0,0,1.0
50213,'3',76.6,4.372,47.5,-25.5,1.022,0,100.0,0.0,1.0,0.0,0.0,1.0,1,100.0,76.6,5.0,1,1.0,0,1.0,0,1.0,0,1.0,0,1.0
50215,'2',217.6,222.493,310.001,-72.5,1.022,0,100.0,0.0,1.0,0.0,0.0,1.0,1,100.0,217.6,60.0,1,1.0,0,1.0,0,1.0,0,1.0,0,1.0
50216,'1',72.4,8.643,35.1,-24.1,1.022,0,100.0,0.0,1.0,0.0,0.0,1.0,1,100.0,72.4,10.0,1,1.0,0,1.0,0,1.0,0,1.0,0,1.0
50216,'2',95.4,8.643,71.6,-31.8,1.022,0,100.0,0.0,1.0,0.0,0.0,1.0,1,100.0,95.4,50.0,1,1.0,0,1.0,0,1.0,0,1.0,0,1.0
50216,'3',95.4,8.643,71.6,-31.8,1.022,0,100.0,0.0,1.0,0.0,0.0,1.0,1,100.0,95.4,20.0,1,1.0,0,1.0,0,1.0,0,1.0,0,1.0
50219,'1',63.4,12.639,57.334,-21.1,1.022,0,100.0,0.0,1.0,0.0,0.0,1.0,1,100.0,63.4,5.0,1,1.0,0,1.0,0,1.0,0,1.0,0,1.0
50219,'2',63.4,12.639,57.334,-21.1,1.022,0,100.0,0.0,1.0,0.0,0.0,1.0,1,100.0,63.4,5.0,1,1.0,0,1.0,0,1.0,0,1.0,0,1.0
50219,'3',54.4,12.639,51.734,-18.1,1.022,0,100.0,0.0,1.0,0.0,0.0,1.0,1,100.0,54.4,22.0,1,1.0,0,1.0,0,1.0,0,1.0,0,1.0
50219,'4',24.9,12.639,33.434,-8.3,1.022,0,100.0,0.0,1.0,0.0,0.0,1.0,1,100.0,24.9,5.0,1,1.0,0,1.0,0,1.0,0,1.0,0,1.0
50220,'1',28.2,18.023,18.023,-9.4,1.022,0,100.0,0.0,1.0,0.0,0.0,1.0,1,100.0,28.2,10.0,1,1.0,0,1.0,0,1.0,0,1.0,0,1.0
50220,'2',60.5,18.989,41.823,-20.2,1.022,0,100.0,0.0,1.0,0.0,0.0,1.0,1,100.0,60.5,20.0,1,1.0,0,1.0,0,1.0,0,1.0,0,1.0
50220,'3',60.5,18.989,41.823,-20.2,1.022,0,100.0,0.0,1.0,0.0,0.0,1.0,1,100.0,60.5,20.0,1,1.0,0,1.0,0,1.0,0,1.0,0,1.0
50220,'4',60.5,18.989,41.823,-20.2,1.022,0,100.0,0.0,1.0,0.0,0.0,1.0,1,100.0,60.5,20.0,1,1.0,0,1.0,0,1.0,0,1.0,0,1.0
50221,'1',60.0,1.85,34.762,-23.7,1.022,0,100.0,0.0,1.0,0.0,0.0,1.0,1,100.0,60.0,0.0,1,1.0,0,1.0,0,1.0,0,1.0,1,1.0
50222,'1',59.4,-78.339,23.5,-78.339,1.022,0,100.0,0.0,1.0,0.0,0.0,1.0,1,100.0,59.4,0.0,1,1.0,0,1.0,0,1.0,0,1.0,1,1.0
50224,'1',34.42,8.233,27.5,-18.9,1.022,0,100.0,0.0,1.0,0.0,0.0,1.0,1,100.0,56.7,1.0,1,1.0,0,1.0,0,1.0,0,1.0,0,1.0
50225,'1',55.4,33.022,57.071,-18.5,1.022,0,100.0,0.0,1.0,0.0,0.0,1.0,1,100.0,55.4,22.0,1,1.0,0,1.0,0,1.0,0,1.0,0,1.0
50225,'2',55.4,33.022,57.071,-18.5,1.022,0,100.0,0.0,1.0,0.0,0.0,1.0,1,100.0,55.4,22.0,1,1.0,0,1.0,0,1.0,0,1.0,0,1.0
50225,'3',58.9,33.022,66.771,-19.6,1.022,0,100.0,0.0,1.0,0.0,0.0,1.0,1,100.0,58.9,30.0,1,1.0,0,1.0,0,1.0,0,1.0,0,1.0
50225,'4',58.9,33.022,66.771,-19.6,1.022,0,100.0,0.0,1.0,0.0,0.0,1.0,1,100.0,58.9,24.0,1,1.0,0,1.0,0,1.0,0,1.0,0,1.0
50225,'5',105.6,33.022,95.671,-35.2,1.022,0,100.0,0.0,1.0,0.0,0.0,1.0,1,100.0,105.6,54.0,1,1.0,0,1.0,0,1.0,0,1.0,0,1.0
50226,'1',50.0,-16.4,50.218,-16.4,1.017,0,100.0,0.0,1.0,0.0,0.0,1.0,1,100.0,50.0,5.0,1,1.0,0,1.0,0,1.0,0,1.0,0,1.0
50227,'1',15.2,8.213,8.213,-5.0,1.022,0,100.0,0.0,1.0,0.0,0.0,1.0,1,100.0,15.2,0.0,1,1.0,0,1.0,0,1.0,0,1.0,0,1.0
50227,'2',15.2,8.213,8.213,-5.0,1.022,0,100.0,0.0,1.0,0.0,0.0,1.0,1,100.0,15.2,0.0,1,1.0,0,1.0,0,1.0,0,1.0,0,1.0
50228,'1',13.1,1.082,23.803,-4.35,1.022,0,100.0,0.0,1.0,0.0,0.0,1.0,1,100.0,13.1,0.0,1,1.0,0,1.0,0,1.0,0,1.0,0,1.0
50228,'2',13.1,1.082,23.803,-4.35,1.022,0,100.0,0.0,1.0,0.0,0.0,1.0,1,100.0,13.1,0.0,1,1.0,0,1.0,0,1.0,0,1.0,0,1.0
50230,'1',22.5,-7.5,77.141,-7.5,1.022,0,100.0,0.0,1.0,0.0,0.0,1.0,1,100.0,22.5,3.0,1,1.0,0,1.0,0,1.0,0,1.0,0,1.0
50232,'1',22.0,6.843,143.509,-7.3,1.022,0,100.0,0.0,1.0,0.0,0.0,1.0,1,100.0,22.0,5.0,1,1.0,0,1.0,0,1.0,0,1.0,0,1.0
50233,'1',22.0,-7.3,72.394,-7.3,1.022,0,100.0,0.0,1.0,0.0,0.0,1.0,1,100.0,22.0,7.0,1,1.0,0,1.0,0,1.0,0,1.0,0,1.0
50234,'1',2.725,2.05,2.05,-0.912,1.022,0,100.0,0.0,1.0,0.0,0.0,1.0,1,100.0,2.725,0.0,1,1.0,0,1.0,0,1.0,0,1.0,0,1.0
50234,'2',2.725,2.05,2.05,-0.912,1.022,0,100.0,0.0,1.0,0.0,0.0,1.0,1,100.0,2.725,0.0,1,1.0,0,1.0,0,1.0,0,1.0,0,1.0
50234,'3',2.725,2.05,2.05,-0.912,1.022,0,100.0,0.0,1.0,0.0,0.0,1.0,1,100.0,2.725,0.0,1,1.0,0,1.0,0,1.0,0,1.0,0,1.0
50238,'1',173.0,33.066,98.0,-57.7,1.022,0,100.0,0.0,1.0,0.0,0.0,1.0,1,100.0,173.0,43.25,1,1.0,0,1.0,0,1.0,0,1.0,0,1.0
50238,'4',572.0,33.066,277.0,-190.7,1.022,0,100.0,0.0,1.0,0.0,0.0,1.0,1,100.0,572.0,200.0,1,1.0,0,1.0,0,1.0,0,1.0,0,1.0
50239,'2',569.0,-159.205,275.6,-189.7,1.022,0,100.0,0.0,1.0,0.0,0.0,1.0,1,100.0,569.0,200.0,1,1.0,0,1.0,0,1.0,0,1.0,0,1.0
50241,'1',170.0,26.959,105.4,-56.7,1.022,0,100.0,0.0,1.0,0.0,0.0,1.0,1,100.0,170.0,140.0,1,1.0,0,1.0,0,1.0,0,1.0,0,1.0
50241,'2',178.5,26.959,110.6,-59.5,1.022,0,100.0,0.0,1.0,0.0,0.0,1.0,1,100.0,178.5,95.0,1,1.0,0,1.0,0,1.0,0,1.0,0,1.0
50241,'3',178.5,26.959,110.6,-59.5,1.022,0,100.0,0.0,1.0,0.0,0.0,1.0,1,100.0,178.5,95.0,1,1.0,0,1.0,0,1.0,0,1.0,0,1.0
50241,'4',473.0,26.959,229.1,-157.7,1.022,0,100.0,0.0,1.0,0.0,0.0,1.0,1,100.0,473.0,205.0,1,1.0,0,1.0,0,1.0,0,1.0,0,1.0
50241,'6',473.0,26.959,229.1,-157.7,1.022,0,100.0,0.0,1.0,0.0,0.0,1.0,1,100.0,473.0,160.0,1,1.0,0,1.0,0,1.0,0,1.0,0,1.0
50243,'3',159.5,31.117,98.8,-53.2,1.022,0,100.0,0.0,1.0,0.0,0.0,1.0,1,100.0,159.5,150.0,1,1.0,0,1.0,0,1.0,0,1.0,0,1.0
50243,'4',159.5,31.117,98.8,-53.2,1.022,0,100.0,0.0,1.0,0.0,0.0,1.0,1,100.0,159.5,150.0,1,1.0,0,1.0,0,1.0,0,1.0,0,1.0
50243,'7',198.9,31.117,123.3,-66.3,1.022,0,100.0,0.0,1.0,0.0,0.0,1.0,1,100.0,198.9,89.5,1,1.0,0,1.0,0,1.0,0,1.0,0,1.0
50243,'8',198.9,31.117,123.3,-66.3,1.022,0,100.0,0.0,1.0,0.0,0.0,1.0,1,100.0,198.9,89.5,1,1.0,0,1.0,0,1.0,0,1.0,0,1.0
50244,'1',183.9,7.677,89.1,-61.3,1.022,0,100.0,0.0,1.0,0.0,0.0,1.0,1,100.0,183.9,70.0,1,1.0,0,1.0,0,1.0,0,1.0,0,1.0
50244,'2',183.9,7.677,89.1,-61.3,1.022,0,100.0,0.0,1.0,0.0,0.0,1.0,1,100.0,183.9,70.0,1,1.0,0,1.0,0,1.0,0,1.0,0,1.0
50244,'3',183.9,7.677,89.1,-61.3,1.022,0,100.0,0.0,1.0,0.0,0.0,1.0,1,100.0,183.9,70.0,1,1.0,0,1.0,0,1.0,0,1.0,0,1.0
50244,'4',183.9,7.677,89.1,-61.3,1.022,0,100.0,0.0,1.0,0.0,0.0,1.0,1,100.0,183.9,70.0,1,1.0,0,1.0,0,1.0,0,1.0,0,1.0
50244,'5',317.2,7.677,153.6,-105.7,1.022,0,100.0,0.0,1.0,0.0,0.0,1.0,1,100.0,317.2,70.0,1,1.0,0,1.0,0,1.0,0,1.0,0,1.0
50244,'6',317.2,7.677,153.6,-105.7,1.022,0,100.0,0.0,1.0,0.0,0.0,1.0,1,100.0,317.2,35.0,1,1.0,0,1.0,0,1.0,0,1.0,0,1.0
50245,'1',179.3,26.278,111.1,-59.8,1.022,0,100.0,0.0,1.0,0.0,0.0,1.0,1,100.0,179.3,125.0,1,1.0,0,1.0,0,1.0,0,1.0,0,1.0
50245,'2',179.3,26.278,111.1,-59.8,1.022,0,100.0,0.0,1.0,0.0,0.0,1.0,1,100.0,179.3,125.0,1,1.0,0,1.0,0,1.0,0,1.0,0,1.0
50245,'3',179.3,26.278,111.1,-59.8,1.022,0,100.0,0.0,1.0,0.0,0.0,1.0,1,100.0,179.3,125.0,1,1.0,0,1.0,0,1.0,0,1.0,0,1.0
50245,'4',122.0,26.278,75.6,-40.7,1.022,0,100.0,0.0,1.0,0.0,0.0,1.0,1,100.0,122.0,72.0,1,1.0,0,1.0,0,1.0,0,1.0,0,1.0
50245,'5',122.0,26.278,75.6,-40.7,1.022,0,100.0,0.0,1.0,0.0,0.0,1.0,1,100.0,122.0,72.0,1,1.0,0,1.0,0,1.0,0,1.0,0,1.0
50245,'6',122.0,26.278,75.6,-40.7,1.022,0,100.0,0.0,1.0,0.0,0.0,1.0,1,100.0,122.0,72.0,1,1.0,0,1.0,0,1.0,0,1.0,0,1.0
50246,'1',176.6,108.64,109.4,-58.9,1.022,0,100.0,0.0,1.0,0.0,0.0,1.0,1,100.0,176.6,93.6,1,1.0,0,1.0,0,1.0,0,1.0,0,1.0
50246,'2',176.6,108.64,109.4,-58.9,1.022,0,100.0,0.0,1.0,0.0,0.0,1.0,1,100.0,176.6,93.6,1,1.0,0,1.0,0,1.0,0,1.0,0,1.0
50246,'3',198.1,108.64,122.8,-66.0,1.022,0,100.0,0.0,1.0,0.0,0.0,1.0,1,100.0,198.1,89.14,1,1.0,0,1.0,0,1.0,0,1.0,0,1.0
50248,'1',176.0,44.645,109.1,-58.7,1.022,0,100.0,0.0,1.0,0.0,0.0,1.0,1,100.0,176.0,110.0,1,1.0,0,1.0,0,1.0,0,1.0,0,1.0
50248,'2',176.0,44.645,109.1,-58.7,1.022,0,100.0,0.0,1.0,0.0,0.0,1.0,1,100.0,176.0,110.0,1,1.0,0,1.0,0,1.0,0,1.0,0,1.0
50248,'3',176.0,44.645,109.1,-58.7,1.022,0,100.0,0.0,1.0,0.0,0.0,1.0,1,100.0,176.0,110.0,1,1.0,0,1.0,0,1.0,0,1.0,0,1.0
50248,'4',176.0,44.645,109.1,-58.7,1.022,0,100.0,0.0,1.0,0.0,0.0,1.0,1,100.0,176.0,110.0,1,1.0,0,1.0,0,1.0,0,1.0,0,1.0
50248,'5',255.0,44.645,158.0,-85.0,1.022,0,100.0,0.0,1.0,0.0,0.0,1.0,1,100.0,255.0,60.0,1,1.0,0,1.0,0,1.0,0,1.0,0,1.0
50248,'6',255.0,44.645,158.0,-85.0,1.022,0,100.0,0.0,1.0,0.0,0.0,1.0,1,100.0,255.0,60.0,1,1.0,0,1.0,0,1.0,0,1.0,0,1.0
50252,'1',54.0,54.2,54.2,-54.2,1.022,0,100.0,0.0,1.0,0.0,0.0,1.0,1,100.0,54.0,0.0,1,1.0,0,1.0,0,1.0,0,1.0,1,1.0
50253,'1',72.0,-20.805,52.9,-52.9,1.022,0,100.0,0.0,1.0,0.0,0.0,1.0,1,100.0,72.0,0.0,1,1.0,0,1.0,0,1.0,0,1.0,1,1.0
50254,'1',55.0,-15.068,44.6,-44.6,1.022,0,100.0,0.0,1.0,0.0,0.0,1.0,1,100.0,55.0,0.0,1,1.0,0,1.0,0,1.0,0,1.0,1,1.0
50256,'1',21.0,43.7,43.7,-43.7,1.022,0,100.0,0.0,1.0,0.0,0.0,1.0,1,100.0,21.0,0.0,1,1.0,0,1.0,0,1.0,0,1.0,1,1.0
50257,'1',99.2,-52.301,43.7,-52.301,1.022,0,100.0,0.0,1.0,0.0,0.0,1.0,1,100.0,99.2,0.0,1,1.0,0,1.0,0,1.0,0,1.0,1,1.0
50257,'2',98.9,-52.201,43.6,-52.201,1.022,0,100.0,0.0,1.0,0.0,0.0,1.0,1,100.0,98.9,0.0,1,1.0,0,1.0,0,1.0,0,1.0,1,1.0
50258,'1',170.0,105.049,228.769,-56.7,1.022,0,100.0,0.0,1.0,0.0,0.0,1.0,1,100.0,170.0,19.0,1,1.0,0,1.0,0,1.0,0,1.0,0,1.0
50258,'2',170.0,105.049,228.769,-56.7,1.022,0,100.0,0.0,1.0,0.0,0.0,1.0,1,100.0,170.0,19.0,1,1.0,0,1.0,0,1.0,0,1.0,0,1.0
50259,'1',44.5,11.865,69.954,-41.7,1.022,0,100.0,0.0,1.0,0.0,0.0,1.0,1,100.0,44.5,0.0,1,1.0,0,1.0,0,1.0,0,1.0,1,1.0
50260,'2',84.0,-7.931,27.6,-27.6,1.022,0,100.0,0.0,1.0,0.0,0.0,1.0,1,100.0,84.0,13.0,1,1.0,0,1.0,0,1.0,0,1.0,0,1.0
50260,'3',86.5,-7.931,53.6,-28.8,1.022,0,100.0,0.0,1.0,0.0,0.0,1.0,1,100.0,86.5,51.0,1,1.0,0,1.0,0,1.0,0,1.0,0,1.0
50260,'4',86.5,-7.931,53.6,-28.8,1.022,0,100.0,0.0,1.0,0.0,0.0,1.0,1,100.0,86.5,51.0,1,1.0,0,1.0,0,1.0,0,1.0,0,1.0
50260,'5',315.0,-7.931,152.6,-105.0,1.022,0,100.0,0.0,1.0,0.0,0.0,1.0,1,100.0,315.0,35.0,1,1.0,0,1.0,0,1.0,0,1.0,0,1.0
50261,'3',86.5,53.6,53.6,-28.8,1.022,0,100.0,0.0,1.0,0.0,0.0,1.0,1,100.0,86.5,42.0,1,1.0,0,1.0,0,1.0,0,1.0,0,1.0
50261,'4',86.5,53.6,53.6,-28.8,1.022,0,100.0,0.0,1.0,0.0,0.0,1.0,1,100.0,86.5,42.0,1,1.0,0,1.0,0,1.0,0,1.0,0,1.0
50262,'1',85.0,28.938,46.394,-28.3,1.022,0,100.0,0.0,1.0,0.0,0.0,1.0,1,100.0,85.0,30.0,1,1.0,0,1.0,0,1.0,0,1.0,0,1.0
50262,'2',85.0,28.938,46.394,-28.3,1.022,0,100.0,0.0,1.0,0.0,0.0,1.0,1,100.0,85.0,30.0,1,1.0,0,1.0,0,1.0,0,1.0,0,1.0
50262,'3',120.0,28.938,63.294,-40.0,1.022,0,100.0,0.0,1.0,0.0,0.0,1.0,1,100.0,120.0,34.0,1,1.0,0,1.0,0,1.0,0,1.0,0,1.0
50264,'1',45.0,10.444,27.9,-15.0,1.022,0,100.0,0.0,1.0,0.0,0.0,1.0,1,100.0,45.0,15.0,1,1.0,0,1.0,0,1.0,0,1.0,0,1.0
50264,'2',45.0,10.444,27.9,-15.0,1.022,0,100.0,0.0,1.0,0.0,0.0,1.0,1,100.0,45.0,15.0,1,1.0,0,1.0,0,1.0,0,1.0,0,1.0
50264,'3',45.0,10.444,27.9,-15.0,1.022,0,100.0,0.0,1.0,0.0,0.0,1.0,1,100.0,45.0,15.0,1,1.0,0,1.0,0,1.0,0,1.0,0,1.0
50264,'7',50.0,10.444,31.0,-16.7,1.022,0,100.0,0.0,1.0,0.0,0.0,1.0,1,100.0,50.0,15.0,1,1.0,0,1.0,0,1.0,0,1.0,0,1.0
50265,'1',84.5,36.214,52.4,-28.2,1.022,0,100.0,0.0,1.0,0.0,0.0,1.0,1,100.0,84.5,45.0,1,1.0,0,1.0,0,1.0,0,1.0,0,1.0
50265,'2',84.5,36.214,52.4,-28.2,1.022,0,100.0,0.0,1.0,0.0,0.0,1.0,1,100.0,84.5,45.0,1,1.0,0,1.0,0,1.0,0,1.0,0,1.0
50265,'3',84.5,36.214,52.4,-28.2,1.022,0,100.0,0.0,1.0,0.0,0.0,1.0,1,100.0,84.5,45.0,1,1.0,0,1.0,0,1.0,0,1.0,0,1.0
50265,'4',84.5,36.214,52.4,-28.2,1.022,0,100.0,0.0,1.0,0.0,0.0,1.0,1,100.0,84.5,45.0,1,1.0,0,1.0,0,1.0,0,1.0,0,1.0
50267,'1',49.9,14.727,14.727,-16.6,1.022,0,100.0,0.0,1.0,0.0,0.0,1.0,1,100.0,49.9,44.1,1,1.0,0,1.0,0,1.0,0,1.0,0,1.0
50267,'2',72.5,25.627,25.627,-24.2,1.022,0,100.0,0.0,1.0,0.0,0.0,1.0,1,100.0,72.5,67.3,1,1.0,0,1.0,0,1.0,0,1.0,0,1.0
50272,'1',125.0,-0.629,77.5,-41.7,1.022,0,100.0,0.0,1.0,0.0,0.0,1.0,1,100.0,125.0,30.0,1,1.0,0,1.0,0,1.0,0,1.0,0,1.0
50272,'2',135.0,-0.629,83.7,-45.0,1.022,0,100.0,0.0,1.0,0.0,0.0,1.0,1,100.0,135.0,30.0,1,1.0,0,1.0,0,1.0,0,1.0,0,1.0
50272,'3',45.0,-0.629,27.9,-15.0,1.022,0,100.0,0.0,1.0,0.0,0.0,1.0,1,100.0,45.0,20.0,1,1.0,0,1.0,0,1.0,0,1.0,0,1.0
50273,'1',45.0,10.664,28.626,-15.0,1.022,0,100.0,0.0,1.0,0.0,0.0,1.0,1,100.0,45.0,15.0,1,1.0,0,1.0,0,1.0,0,1.0,0,1.0
50273,'2',45.0,10.664,28.626,-15.0,1.022,0,100.0,0.0,1.0,0.0,0.0,1.0,1,100.0,45.0,15.0,1,1.0,0,1.0,0,1.0,0,1.0,0,1.0
50274,'1',11.2,16.408,17.141,-3.675,1.022,0,100.0,0.0,1.0,0.0,0.0,1.0,1,100.0,11.2,4.0,1,1.0,0,1.0,0,1.0,0,1.0,0,1.0
50274,'2',11.2,16.408,17.141,-3.675,1.022,0,100.0,0.0,1.0,0.0,0.0,1.0,1,100.0,11.2,4.0,1,1.0,0,1.0,0,1.0,0,1.0,0,1.0
50277,'1',40.5,21.21,21.21,-16.0,1.022,0,100.0,0.0,1.0,0.0,0.0,1.0,1,100.0,40.5,0.0,1,1.0,0,1.0,0,1.0,0,1.0,1,1.0
50277,'2',87.0,52.21,52.21,-47.0,1.022,0,100.0,0.0,1.0,0.0,0.0,1.0,1,100.0,87.0,0.0,1,1.0,0,1.0,0,1.0,0,1.0,1,1.0
50278,'1',19.5,10.664,18.646,-6.4,1.022,0,100.0,0.0,1.0,0.0,0.0,1.0,1,100.0,19.5,8.0,1,1.0,0,1.0,0,1.0,0,1.0,0,1.0
50278,'2',19.5,10.664,18.646,-6.4,1.022,0,100.0,0.0,1.0,0.0,0.0,1.0,1,100.0,19.5,8.0,1,1.0,0,1.0,0,1.0,0,1.0,0,1.0
50279,'1',37.0,-2.121,33.685,-12.3,1.022,0,100.0,0.0,1.0,0.0,0.0,1.0,1,100.0,37.0,2.0,1,1.0,0,1.0,0,1.0,0,1.0,0,1.0
50280,'1',35.0,52.003,52.003,-11.5,1.022,0,100.0,0.0,1.0,0.0,0.0,1.0,1,100.0,35.0,25.0,1,1.0,0,1.0,0,1.0,0,1.0,0,1.0
50280,'2',35.0,52.003,52.003,-11.5,1.022,0,100.0,0.0,1.0,0.0,0.0,1.0,1,100.0,35.0,25.0,1,1.0,0,1.0,0,1.0,0,1.0,0,1.0
50281,'1',32.1,-2.776,12.7,-12.7,1.022,0,100.0,0.0,1.0,0.0,0.0,1.0,1,100.0,32.1,18.0,1,1.0,0,1.0,0,1.0,0,1.0,0,1.0
50281,'2',32.1,-2.776,12.7,-12.7,1.022,0,100.0,0.0,1.0,0.0,0.0,1.0,1,100.0,32.1,18.0,1,1.0,0,1.0,0,1.0,0,1.0,0,1.0
50281,'4',32.1,-2.776,15.5,-10.7,1.022,0,100.0,0.0,1.0,0.0,0.0,1.0,1,100.0,32.1,18.0,1,1.0,0,1.0,0,1.0,0,1.0,0,1.0
50282,'1',30.0,6.223,9.9,-9.9,1.022,0,100.0,0.0,1.0,0.0,0.0,1.0,1,100.0,30.0,10.0,1,1.0,0,1.0,0,1.0,0,1.0,0,1.0
50282,'2',30.0,6.223,9.9,-9.9,1.022,0,100.0,0.0,1.0,0.0,0.0,1.0,1,100.0,30.0,10.0,1,1.0,0,1.0,0,1.0,0,1.0,0,1.0
50283,'1',27.5,14.144,20.236,-9.0,1.022,0,100.0,0.0,1.0,0.0,0.0,1.0,1,100.0,27.5,10.0,1,1.0,0,1.0,0,1.0,0,1.0,0,1.0
50283,'2',27.5,14.144,20.236,-9.0,1.022,0,100.0,0.0,1.0,0.0,0.0,1.0,1,100.0,27.5,10.0,1,1.0,0,1.0,0,1.0,0,1.0,0,1.0
50283,'3',27.5,14.144,20.236,-9.0,1.022,0,100.0,0.0,1.0,0.0,0.0,1.0,1,100.0,27.5,10.0,1,1.0,0,1.0,0,1.0,0,1.0,0,1.0
50283,'4',27.5,14.144,20.236,-9.0,1.022,0,100.0,0.0,1.0,0.0,0.0,1.0,1,100.0,27.5,10.0,1,1.0,0,1.0,0,1.0,0,1.0,0,1.0
50287,'1',23.0,11.1,11.1,-7.7,1.022,0,100.0,0.0,1.0,0.0,0.0,1.0,1,100.0,23.0,5.0,1,1.0,0,1.0,0,1.0,0,1.0,0,1.0
50287,'3',567.0,109.082,274.6,-189.0,1.022,0,100.0,0.0,1.0,0.0,0.0,1.0,1,100.0,567.0,70.0,1,1.0,0,1.0,0,1.0,0,1.0,0,1.0
50290,'1',20.0,14.248,14.248,-6.6,1.022,0,100.0,0.0,1.0,0.0,0.0,1.0,1,100.0,20.0,7.0,1,1.0,0,1.0,0,1.0,0,1.0,0,1.0
50290,'2',20.0,14.248,14.248,-6.6,1.022,0,100.0,0.0,1.0,0.0,0.0,1.0,1,100.0,20.0,7.0,1,1.0,0,1.0,0,1.0,0,1.0,0,1.0
50291,'1',456.0,15.698,320.9,-152.0,1.04,0,100.0,0.0,1.0,0.0,0.0,1.0,1,100.0,456.0,150.0,1,1.0,0,1.0,0,1.0,0,1.0,0,1.0
50293,'1',119.7,30.217,58.0,-39.9,1.022,0,100.0,0.0,1.0,0.0,0.0,1.0,1,100.0,119.7,45.0,1,1.0,0,1.0,0,1.0,0,1.0,0,1.0
50293,'2',119.7,30.217,58.0,-39.9,1.022,0,100.0,0.0,1.0,0.0,0.0,1.0,1,100.0,119.7,45.0,1,1.0,0,1.0,0,1.0,0,1.0,0,1.0
50293,'3',90.0,30.217,103.1,-55.4,1.022,0,100.0,0.0,1.0,0.0,0.0,1.0,1,100.0,166.3,90.0,1,1.0,0,1.0,0,1.0,0,1.0,0,1.0
50294,'1',112.0,-36.8,36.8,-36.8,1.022,0,100.0,0.0,1.0,0.0,0.0,1.0,1,100.0,112.0,0.0,1,1.0,0,1.0,0,1.0,0,1.0,0,1.0
50294,'2',112.0,-36.8,36.8,-36.8,1.022,0,100.0,0.0,1.0,0.0,0.0,1.0,1,100.0,112.0,0.0,1,1.0,0,1.0,0,1.0,0,1.0,0,1.0
50294,'3',112.0,-36.8,36.8,-36.8,1.022,0,100.0,0.0,1.0,0.0,0.0,1.0,1,100.0,112.0,0.0,1,1.0,0,1.0,0,1.0,0,1.0,0,1.0
50294,'4',112.0,-36.8,36.8,-36.8,1.022,0,100.0,0.0,1.0,0.0,0.0,1.0,1,100.0,112.0,0.0,1,1.0,0,1.0,0,1.0,0,1.0,0,1.0
50294,'5',112.0,-36.8,36.8,-36.8,1.022,0,100.0,0.0,1.0,0.0,0.0,1.0,1,100.0,112.0,0.0,1,1.0,0,1.0,0,1.0,0,1.0,0,1.0
50294,'6',112.0,-36.8,36.8,-36.8,1.022,0,100.0,0.0,1.0,0.0,0.0,1.0,1,100.0,112.0,0.0,1,1.0,0,1.0,0,1.0,0,1.0,0,1.0
50294,'7',112.0,-36.8,36.8,-36.8,1.022,0,100.0,0.0,1.0,0.0,0.0,1.0,1,100.0,112.0,0.0,1,1.0,0,1.0,0,1.0,0,1.0,0,1.0
50296,'1',93.5,-31.2,45.3,-31.2,1.022,0,100.0,0.0,1.0,0.0,0.0,1.0,1,100.0,93.5,46.1,1,1.0,0,1.0,0,1.0,0,1.0,0,1.0
50296,'2',95.0,-31.7,46.0,-31.7,1.022,0,100.0,0.0,1.0,0.0,0.0,1.0,1,100.0,95.0,46.1,1,1.0,0,1.0,0,1.0,0,1.0,0,1.0
50297,'1',44.5,-2.128,32.7,-22.5,1.022,0,100.0,0.0,1.0,0.0,0.0,1.0,1,100.0,67.5,10.0,1,1.0,0,1.0,0,1.0,0,1.0,0,1.0
50297,'2',44.5,-2.128,32.7,-22.5,1.022,0,100.0,0.0,1.0,0.0,0.0,1.0,1,100.0,67.5,10.0,1,1.0,0,1.0,0,1.0,0,1.0,0,1.0
50298,'1',20.0,-6.612,61.395,-22.5,1.022,0,100.0,0.0,1.0,0.0,0.0,1.0,1,100.0,67.5,20.0,1,1.0,0,1.0,0,1.0,0,1.0,0,1.0
50299,'1',58.5,-29.2,29.2,-29.2,1.022,0,100.0,0.0,1.0,0.0,0.0,1.0,1,100.0,58.5,0.0,1,1.0,0,1.0,0,1.0,0,1.0,0,1.0
50299,'2',58.5,-29.2,29.2,-29.2,1.022,0,100.0,0.0,1.0,0.0,0.0,1.0,1,100.0,58.5,0.0,1,1.0,0,1.0,0,1.0,0,1.0,0,1.0
50299,'3',58.5,-29.2,29.2,-29.2,1.022,0,100.0,0.0,1.0,0.0,0.0,1.0,1,100.0,58.5,0.0,1,1.0,0,1.0,0,1.0,0,1.0,0,1.0
50299,'4',58.5,-29.2,29.2,-29.2,1.022,0,100.0,0.0,1.0,0.0,0.0,1.0,1,100.0,58.5,0.0,1,1.0,0,1.0,0,1.0,0,1.0,0,1.0
50299,'5',58.5,-29.2,29.2,-29.2,1.022,0,100.0,0.0,1.0,0.0,0.0,1.0,1,100.0,58.5,0.0,1,1.0,0,1.0,0,1.0,0,1.0,0,1.0
50299,'6',67.2,-32.1,32.1,-32.1,1.022,0,100.0,0.0,1.0,0.0,0.0,1.0,1,100.0,67.2,0.0,1,1.0,0,1.0,0,1.0,0,1.0,0,1.0
50300,'1',51.0,-20.2,69.004,-20.2,1.022,0,100.0,0.0,1.0,0.0,0.0,1.0,1,100.0,51.0,0.0,1,1.0,0,1.0,0,1.0,0,1.0,1,1.0
50301,'1',50.4,-11.826,53.417,-19.9,1.022,0,100.0,0.0,1.0,0.0,0.0,1.0,1,100.0,50.4,0.0,1,1.0,0,1.0,0,1.0,0,1.0,1,1.0
50302,'1',42.9,-4.901,86.125,-14.3,1.022,0,100.0,0.0,1.0,0.0,0.0,1.0,1,100.0,42.9,15.0,1,1.0,0,1.0,0,1.0,0,1.0,0,1.0
...
0 / END OF GENERATOR DATA BEGIN BRANCH DATA
50134,50135,'1',0.00497766,0.0361207,1.31774,675.75,795.0,795.0,0.0,0.0,0.0,0.0,1,1,75.9,1,1.0,0,1.0,0,1.0,0,1.0
50134,50948,'1',0.00503332,0.03628,1.34238,675.75,795.0,795.0,0.0,0.0,0.0,0.0,1,1,76.78,1,1.0,0,1.0,0,1.0,0,1.0
50134,52364,'1',0.00513118,0.0607667,2.44002,906.95,1067.0,1067.0,0.0,0.0,0.0,0.0,1,1,134.45,1,1.0,0,1.0,0,1.0,0,1.0
50134,75433,'1',1e-07,0.0001,0.0,864.11,1016.63,1016.63,0.0,0.0,0.0,0.0,1,1,0.01,1,1.0,0,1.0,0,1.0,0,1.0
50135,51114,'1',0.00329039,0.0423459,2.93791,1275.0,1500.0,1500.0,0.0,0.0,0.0,0.0,1,1,123.84,1,1.0,0,1.0,0,1.0,0,1.0
50135,51754,'1',0.00392295,0.0283769,1.03051,795.0,795.0,795.0,0.0,0.0,0.0,0.0,1,1,59.45,1,1.0,0,1.0,0,1.0,0,1.0
50135,75437,'1',1e-07,0.0001,0.0,425.0,500.0,500.0,0.0,0.0,0.0,0.0,1,1,0.01,1,1.0,0,1.0,0,1.0,0,1.0
50136,50891,'1',0.00435841,0.031565,1.14828,900.0,900.0,900.0,0.0,0.0,0.0,0.0,1,1,66.2,1,1.0,0,1.0,0,1.0,0,1.0
50136,50948,'1',0.00366073,0.0466526,1.90446,974.95,1147.0,1147.0,0.0,0.0,0.0,0.0,1,1,103.8,1,1.0,0,1.0,0,1.0,0,1.0
50136,75441,'1',1e-07,0.0001,0.0,1175.0,1175.0,1175.0,0.0,0.0,0.0,0.0,1,1,0.01,1,1.0,0,1.0,0,1.0,0,1.0
50137,50680,'1',0.000436738,0.00312195,0.114136,1040.4,1224.0,1224.0,0.0,0.0,0.0,0.0,1,1,6.55,1,1.0,0,1.0,0,1.0,0,1.0
50137,50714,'1',0.00208343,0.0150163,0.542472,754.8,888.0,888.0,0.0,0.0,0.0,0.0,1,1,31.35,1,1.0,0,1.0,0,1.0,0,1.0
50138,52738,'1',0.000646844,0.00462419,0.169074,675.75,795.0,795.0,0.0,0.0,0.0,0.0,1,1,9.71,1,1.0,0,1.0,0,1.0,0,1.0
50139,51288,'1',0.000628405,0.00418439,0.0587631,676.6,796.0,796.0,0.0,0.0,0.0,0.0,1,1,5.48,1,1.0,0,1.0,0,1.0,0,1.0
50139,75966,'1',0.00381758,0.0141112,0.113484,301.75,355.0,355.0,0.0,0.0,0.0,0.0,1,1,13.88,1,1.0,0,1.0,0,1.0,0,1.0
50139,75973,'1',0.00491131,0.0181574,0.146061,301.75,355.0,355.0,0.0,0.0,0.0,0.0,1,1,17.86,1,1.0,0,1.0,0,1.0,0,1.0
50140,50580,'1',0.0254717,0.0861601,0.0488646,199.75,235.0,235.0,0.0,0.0,0.0,0.0,1,1,22.68,1,1.0,0,1.0,0,1.0,0,1.0
50140,50616,'1',0.0336321,0.161754,0.050155,162.35,191.0,191.0,0.0,0.0,0.0,0.0,1,1,31.21,1,1.0,0,1.0,0,1.0,0,1.0
50140,76081,'1',0.095165,0.245335,0.0609543,100.3,118.0,118.0,0.0,0.0,0.0,0.0,1,1,42.52,1,1.0,0,1.0,0,1.0,0,1.0
50140,76084,'1',0.0960444,0.247616,0.0615248,100.3,118.0,118.0,0.0,0.0,0.0,0.0,1,1,42.91,1,1.0,0,1.0,0,1.0,0,1.0
50141,50690,'1',0.0188006,0.0496918,0.0116326,198.05,233.0,233.0,0.0,0.0,0.0,0.0,1,1,8.36,1,1.0,0,1.0,0,1.0,0,1.0
50141,50692,'1',0.00818365,0.0216283,0.00506251,198.05,233.0,233.0,0.0,0.0,0.0,0.0,1,1,3.64,1,1.0,0,1.0,0,1.0,0,1.0
50141,50695,'1',0.00725006,0.0194641,0.00441126,142.0,142.0,142.0,0.0,0.0,0.0,0.0,1,1,3.22,1,1.0,0,1.0,0,1.0,0,1.0
50142,50144,'1',0.0022394,0.0051982,0.00158363,100.3,118.0,118.0,0.0,0.0,0.0,0.0,1,1,1.0,1,1.0,0,1.0,0,1.0,0,1.0
50142,50570,'1',0.0713394,0.264764,0.0788247,135.15,159.0,159.0,0.0,0.0,0.0,0.0,1,1,50.11,1,1.0,0,1.0,0,1.0,0,1.0
50142,75975,'1',0.0184869,0.0634275,0.0151984,120.7,142.0,142.0,0.0,0.0,0.0,0.0,1,1,10.75,1,1.0,0,1.0,0,1.0,0,1.0
50143,50694,'1',0.0303977,0.104324,0.0250076,205.7,242.0,242.0,0.0,0.0,0.0,0.0,1,1,17.69,1,1.0,0,1.0,0,1.0,0,1.0
50143,50717,'1',0.00989076,0.0229596,0.00699487,202.0,202.0,202.0,0.0,0.0,0.0,0.0,1,1,4.4,1,1.0,0,1.0,0,1.0,0,1.0
50143,50931,'1',0.0437305,0.113419,0.0343418,108.8,128.0,128.0,0.0,0.0,0.0,0.0,1,1,21.58,1,1.0,0,1.0,0,1.0,0,1.0
50144,50637,'1',0.109337,0.290053,0.0681957,100.3,118.0,118.0,0.0,0.0,0.0,0.0,1,1,48.93,1,1.0,0,1.0,0,1.0,0,1.0
50144,50676,'1',0.0208692,0.0771869,0.0228754,135.15,159.0,159.0,0.0,0.0,0.0,0.0,1,1,14.57,1,1.0,0,1.0,0,1.0,0,1.0
50145,51243,'1',0.00159684,0.0232993,0.0371868,711.45,837.0,837.0,0.0,0.0,0.0,0.0,1,1,10.15,1,1.0,0,1.0,0,1.0,0,1.0
50146,50731,'1',0.00374091,0.01448,0.10605,955.0,955.0,955.0,0.0,0.0,0.0,0.0,1,1,13.6,1,1.0,0,1.0,0,1.0,0,1.0
50146,51141,'1',0.0029826,0.0135168,0.103492,338.3,398.0,398.0,0.0,0.0,0.0,0.0,1,1,13.01,1,1.0,0,1.0,0,1.0,0,1.0
50147,50602,'1',0.0608557,0.165873,0.0365939,100.3,118.0,118.0,0.0,0.0,0.0,0.0,1,1,27.11,1,1.0,0,1.0,0,1.0,0,1.0
50147,50976,'1',0.0384959,0.122327,0.0343499,120.7,142.0,142.0,0.0,0.0,0.0,0.0,1,1,22.41,1,1.0,0,1.0,0,1.0,0,1.0
50147,51033,'1',0.0706849,0.233867,0.0608203,120.7,142.0,142.0,0.0,0.0,0.0,0.0,1,1,41.29,1,1.0,0,1.0,0,1.0,0,1.0
50147,51242,'1',0.0797053,0.214406,0.0487064,100.3,118.0,118.0,0.0,0.0,0.0,0.0,1,1,35.56,1,1.0,0,1.0,0,1.0,0,1.0
50147,51829,'1',0.114309,0.308146,0.0701797,100.3,118.0,118.0,0.0,0.0,0.0,0.0,1,1,51.18,1,1.0,0,1.0,0,1.0,0,1.0
50147,75994,'1',0.0764892,0.17789,0.0543089,100.3,118.0,118.0,0.0,0.0,0.0,0.0,1,1,34.11,1,1.0,0,1.0,0,1.0,0,1.0
50148,50659,'1',0.0372618,0.0898338,0.025376,130.39,153.4,153.4,0.0,0.0,0.0,0.0,1,1,16.58,1,1.0,0,1.0,0,1.0,0,1.0
50148,50864,'1',0.00185896,0.0129503,0.00486851,212.5,250.0,250.0,0.0,0.0,0.0,0.0,1,1,2.74,1,1.0,0,1.0,0,1.0,0,1.0
50148,50865,'1',0.00189948,0.0210357,0.00684224,276.25,325.0,325.0,0.0,0.0,0.0,0.0,1,1,4.17,1,1.0,0,1.0,0,1.0,0,1.0
50148,50909,'1',0.158501,0.41078,0.10269,100.3,118.0,118.0,0.0,0.0,0.0,0.0,1,1,71.46,1,1.0,0,1.0,0,1.0,0,1.0
50149,50555,'1',0.0491466,0.114171,0.0348124,100.3,118.0,118.0,0.0,0.0,0.0,0.0,1,1,21.88,1,1.0,0,1.0,0,1.0,0,1.0
50149,50936,'1',0.0124901,0.028994,0.00883351,100.3,118.0,118.0,0.0,0.0,0.0,0.0,1,1,5.55,1,1.0,0,1.0,0,1.0,0,1.0
50149,50937,'1',0.00843663,0.0218655,0.00661498,108.8,128.0,128.0,0.0,0.0,0.0,0.0,1,1,4.16,1,1.0,0,1.0,0,1.0,0,1.0
50150,50731,'1',0.0070801,0.0270581,0.203811,955.0,955.0,955.0,0.0,0.0,0.0,0.0,1,1,25.77,1,1.0,0,1.0,0,1.0,0,1.0
50150,50999,'1',0.00022866,0.000869888,0.00659225,445.0,445.0,445.0,0.0,0.0,0.0,0.0,1,1,0.83,1,1.0,0,1.0,0,1.0,0,1.0
50151,50602,'1',0.0426728,0.114626,0.0259954,100.3,118.0,118.0,0.0,0.0,0.0,0.0,1,1,18.99,1,1.0,0,1.0,0,1.0,0,1.0
50151,76018,'1',0.0319316,0.101443,0.028477,120.7,142.0,142.0,0.0,0.0,0.0,0.0,1,1,18.58,1,1.0,0,1.0,0,1.0,0,1.0
50152,50737,'1',0.0198553,0.0486062,0.0132989,100.3,118.0,118.0,0.0,0.0,0.0,0.0,1,1,8.83,1,1.0,0,1.0,0,1.0,0,1.0
50152,51178,'1',0.0103175,0.0426015,0.0100802,135.15,159.0,159.0,0.0,0.0,0.0,0.0,1,1,7.2,1,1.0,0,1.0,0,1.0,0,1.0
50152,51180,'1',0.00459188,0.0160031,0.00371068,120.7,142.0,142.0,0.0,0.0,0.0,0.0,1,1,2.67,1,1.0,0,1.0,0,1.0,0,1.0
50153,50564,'1',0.0788341,0.188062,0.00264684,48.45,57.0,57.0,0.0,0.0,0.0,0.0,1,1,7.73,1,1.0,0,1.0,0,1.0,0,1.0
50153,50565,'1',0.0788478,0.174528,0.00286203,48.45,57.0,57.0,0.0,0.0,0.0,0.0,1,1,7.73,1,1.0,0,1.0,0,1.0,0,1.0
50153,50567,'1',0.0173626,0.0975588,0.00180664,87.55,103.0,103.0,0.0,0.0,0.0,0.0,1,1,4.61,1,1.0,0,1.0,0,1.0,0,1.0
50154,51250,'1',0.000948913,0.0066105,0.00248511,300.73,353.81,353.81,0.0,0.0,0.0,0.0,1,1,1.4,1,1.0,0,1.0,0,1.0,0,1.0
50154,51252,'1',0.000479198,0.00258318,0.00083298,174.25,205.0,205.0,0.0,0.0,0.0,0.0,1,1,0.51,1,1.0,0,1.0,0,1.0,0,1.0
50154,51257,'1',0.000999401,0.00550344,0.00198687,242.85,285.74,285.74,0.0,0.0,0.0,0.0,1,1,1.14,1,1.0,0,1.0,0,1.0,0,1.0
50155,50637,'1',0.0158636,0.0552923,0.0128228,120.7,142.0,142.0,0.0,0.0,0.0,0.0,1,1,9.22,1,1.0,0,1.0,0,1.0,0,1.0
50155,50702,'1',0.052904,0.144159,0.0317926,100.3,118.0,118.0,0.0,0.0,0.0,0.0,1,1,23.55,1,1.0,0,1.0,0,1.0,0,1.0
50156,50673,'1',0.000112807,0.000811926,0.0292726,1040.4,1224.0,1224.0,0.0,0.0,0.0,0.0,1,1,1.69,1,1.0,0,1.0,0,1.0,0,1.0
50156,51570,'1',0.00592133,0.0431232,1.58133,838.95,987.0,987.0,0.0,0.0,0.0,0.0,1,1,90.92,1,1.0,0,1.0,0,1.0,0,1.0
50157,50919,'1',0.000894658,0.00499142,0.00127489,231.28,272.06,272.06,0.0,0.0,0.0,0.0,1,1,0.88,1,1.0,0,1.0,0,1.0,0,1.0
50157,50920,'1',0.000615474,0.00279392,0.000969656,231.03,271.76,271.76,0.0,0.0,0.0,0.0,1,1,0.57,1,1.0,0,1.0,0,1.0,0,1.0
50157,76014,'1',0.0356209,0.113179,0.0317766,120.7,142.0,142.0,0.0,0.0,0.0,0.0,1,1,20.73,1,1.0,0,1.0,0,1.0,0,1.0
50158,50680,'1',0.000112402,0.000809013,0.0291676,675.75,795.0,795.0,0.0,0.0,0.0,0.0,1,1,1.69,1,1.0,0,1.0,0,1.0,0,1.0
50159,50880,'1',0.0259213,0.0624787,0.0176442,100.3,118.0,118.0,0.0,0.0,0.0,0.0,1,1,11.53,1,1.0,0,1.0,0,1.0,0,1.0
50160,50731,'1',0.00988714,0.0788146,0.683713,487.9,574.0,574.0,0.0,0.0,0.0,0.0,1,1,80.75,1,1.0,0,1.0,0,1.0,0,1.0
50160,50985,'1',0.0193093,0.0742793,0.564407,926.92,1090.5,1090.5,0.0,0.0,0.0,0.0,1,1,71.15,1,1.0,0,1.0,0,1.0,0,1.0
50160,51031,'1',0.0394589,0.152501,1.26146,301.75,355.0,355.0,0.0,0.0,0.0,0.0,1,1,153.18,1,1.0,0,1.0,0,1.0,0,1.0
50161,51276,'1',0.000199282,0.000736833,0.000218279,135.15,159.0,159.0,0.0,0.0,0.0,0.0,1,1,0.14,1,1.0,0,1.0,0,1.0,0,1.0
50161,51279,'1',0.00184145,0.00716375,0.00191334,135.15,159.0,159.0,0.0,0.0,0.0,0.0,1,1,1.28,1,1.0,0,1.0,0,1.0,0,1.0
50162,51170,'1',0.0373311,0.125783,0.00195384,60.35,71.0,71.0,0.0,0.0,0.0,0.0,1,1,5.43,1,1.0,0,1.0,0,1.0,0,1.0
50162,75992,'1',0.20104,0.561049,0.00736684,50.15,59.0,59.0,0.0,0.0,0.0,0.0,1,1,22.37,1,1.0,0,1.0,0,1.0,0,1.0
50163,50164,'1',0.00351758,0.0105873,0.000207012,60.35,71.0,71.0,0.0,0.0,0.0,0.0,1,1,0.51,1,1.0,0,1.0,0,1.0,0,1.0
50163,50561,'1',0.0704085,0.286572,0.00436496,68.0,80.0,80.0,0.0,0.0,0.0,0.0,1,1,12.28,1,1.0,0,1.0,0,1.0,0,1.0
50163,50724,'1',0.113398,0.454143,0.00959788,74.8,88.0,88.0,0.0,0.0,0.0,0.0,1,1,22.99,1,1.0,0,1.0,0,1.0,0,1.0
50163,50875,'1',0.669777,0.639451,0.00956317,44.0,44.0,49.0,0.0,0.0,0.0,0.0,1,1,26.6,1,1.0,0,1.0,0,1.0,0,1.0
50163,50876,'1',0.40261,0.41731,0.00524696,44.0,44.0,49.0,0.0,0.0,0.0,0.0,1,1,15.97,1,1.0,0,1.0,0,1.0,0,1.0
50164,50986,'1',0.137305,0.482266,0.00689386,60.35,71.0,71.0,0.0,0.0,0.0,0.0,1,1,19.98,1,1.0,0,1.0,0,1.0,0,1.0
50165,50645,'1',0.00205864,0.0113364,0.00409275,186.15,219.0,219.0,0.0,0.0,0.0,0.0,1,1,2.35,1,1.0,0,1.0,0,1.0,0,1.0
50165,50646,'1',0.00473536,0.0154896,0.011612,217.6,256.0,256.0,0.0,0.0,0.0,0.0,1,1,4.67,1,1.0,0,1.0,0,1.0,0,1.0
50165,50649,'1',0.0025522,0.0102134,0.00345004,148.75,175.0,175.0,0.0,0.0,0.0,0.0,1,1,2.07,1,1.0,0,1.0,0,1.0,0,1.0
50165,50650,'1',0.00503965,0.0172879,0.00414164,120.7,142.0,142.0,0.0,0.0,0.0,0.0,1,1,2.93,1,1.0,0,1.0,0,1.0,0,1.0
50165,51180,'1',0.0428268,0.116664,0.0257198,100.3,118.0,118.0,0.0,0.0,0.0,0.0,1,1,19.06,1,1.0,0,1.0,0,1.0,0,1.0
50165,51213,'1',0.0385762,0.122583,0.0344219,120.7,142.0,142.0,0.0,0.0,0.0,0.0,1,1,22.46,1,1.0,0,1.0,0,1.0,0,1.0
50166,50667,'1',0.0415751,0.110296,0.0448089,198.05,233.0,233.0,0.0,0.0,0.0,0.0,1,1,24.21,1,1.0,0,1.0,0,1.0,0,1.0
50166,50690,'1',0.0128247,0.0297709,0.00907023,100.3,118.0,118.0,0.0,0.0,0.0,0.0,1,1,5.7,1,1.0,0,1.0,0,1.0,0,1.0
50166,50692,'1',0.0284847,0.0697403,0.0190842,100.3,118.0,118.0,0.0,0.0,0.0,0.0,1,1,12.67,1,1.0,0,1.0,0,1.0,0,1.0
50166,50733,'1',0.0389603,0.0904808,0.02758,198.05,233.0,233.0,0.0,0.0,0.0,0.0,1,1,17.33,1,1.0,0,1.0,0,1.0,0,1.0
50167,51141,'1',0.000494641,0.00188852,0.0142064,301.75,355.0,355.0,0.0,0.0,0.0,0.0,1,1,1.8,1,1.0,0,1.0,0,1.0,0,1.0
50167,53053,'1',0.0334451,0.127796,1.04176,301.75,355.0,355.0,0.0,0.0,0.0,0.0,1,1,127.16,1,1.0,0,1.0,0,1.0,0,1.0
50168,51232,'1',0.0361256,0.108807,0.0340688,120.7,142.0,142.0,0.0,0.0,0.0,0.0,1,1,21.03,1,1.0,0,1.0,0,1.0,0,1.0
50169,50950,'1',0.025036,0.0575184,0.000873645,48.45,57.0,57.0,0.0,0.0,0.0,0.0,1,1,2.45,1,1.0,0,1.0,0,1.0,0,1.0
50169,50951,'1',0.00417814,0.00959888,0.000145795,48.45,57.0,57.0,0.0,0.0,0.0,0.0,1,1,0.41,1,1.0,0,1.0,0,1.0,0,1.0
50170,50859,'1',0.00112499,0.012306,0.00410277,276.25,325.0,325.0,0.0,0.0,0.0,0.0,1,1,2.47,1,1.0,0,1.0,0,1.0,0,1.0
50170,50863,'1',0.000733172,0.00793685,0.00334027,294.95,347.0,347.0,0.0,0.0,0.0,0.0,1,1,1.78,1,1.0,0,1.0,0,1.0,0,1.0
50170,50867,'1',0.00798487,0.0303521,0.00849679,135.15,159.0,159.0,0.0,0.0,0.0,0.0,1,1,5.57,1,1.0,0,1.0,0,1.0,0,1.0
50171,50585,'1',0.0157621,0.0353626,0.000563876,48.45,57.0,57.0,0.0,0.0,0.0,0.0,1,1,1.54,1,1.0,0,1.0,0,1.0,0,1.0
50171,75896,'1',0.0411336,0.095499,0.00142026,48.45,57.0,57.0,0.0,0.0,0.0,0.0,1,1,4.03,1,1.0,0,1.0,0,1.0,0,1.0
50171,75898,'1',0.343623,0.332193,0.00482427,44.0,44.0,49.0,0.0,0.0,0.0,0.0,1,1,13.63,1,1.0,0,1.0,0,1.0,0,1.0
50172,75905,'1',0.011692,0.0432306,0.000800421,68.0,80.0,80.0,0.0,0.0,0.0,0.0,1,1,2.04,1,1.0,0,1.0,0,1.0,0,1.0
50172,75906,'1',0.00276501,0.010059,0.000192461,68.0,80.0,80.0,0.0,0.0,0.0,0.0,1,1,0.48,1,1.0,0,1.0,0,1.0,0,1.0
...